
  Mrv0541 11241417102D          

 49 54  0  0  0  0            999 V2000
   11.9332  -20.7831    0.0000 C   0  0  0  0  0  0  0  0  0  0  0  0
   11.5249  -20.0707    0.0000 C   0  0  2  0  0  0  0  0  0  0  0  0
   11.1120  -20.7805    0.0000 C   0  0  0  0  0  0  0  0  0  0  0  0
   10.8166  -18.8373    0.0000 C   0  0  0  0  0  0  0  0  0  0  0  0
   10.8166  -19.6623    0.0000 C   0  0  2  0  0  0  0  0  0  0  0  0
   11.5286  -18.4207    0.0000 C   0  0  0  0  0  0  0  0  0  0  0  0
   12.2405  -18.8373    0.0000 C   0  0  1  0  0  0  0  0  0  0  0  0
   12.2416  -19.6623    0.0000 C   0  0  1  0  0  0  0  0  0  0  0  0
   12.9527  -20.0716    0.0000 C   0  0  0  0  0  0  0  0  0  0  0  0
   13.6672  -19.6605    0.0000 C   0  0  1  0  0  0  0  0  0  0  0  0
   12.9505  -18.4216    0.0000 C   0  0  2  0  0  0  0  0  0  0  0  0
   13.6658  -18.8401    0.0000 C   0  0  2  0  0  0  0  0  0  0  0  0
   14.3818  -18.4322    0.0000 O   0  0  0  0  0  0  0  0  0  0  0  0
   12.9513  -17.5953    0.0000 C   0  0  2  0  0  0  0  0  0  0  0  0
   13.6737  -17.1857    0.0000 C   0  0  0  0  0  0  0  0  0  0  0  0
   14.3918  -17.6079    0.0000 C   0  0  0  0  0  0  0  0  0  0  0  0
   15.1125  -17.1994    0.0000 C   0  0  0  0  0  0  0  0  0  0  0  0
   15.1213  -16.3670    0.0000 C   0  0  0  0  0  0  0  0  0  0  0  0
   14.4032  -15.9449    0.0000 O   0  0  0  0  0  0  0  0  0  0  0  0
   13.6763  -16.3550    0.0000 C   0  0  0  0  0  0  0  0  0  0  0  0
   15.8351  -15.9628    0.0000 C   0  0  0  0  0  0  0  0  0  0  0  0
   16.5459  -16.3836    0.0000 C   0  0  0  0  0  0  0  0  0  0  0  0
   17.2637  -15.9785    0.0000 N   0  0  0  0  0  0  0  0  0  0  0  0
   17.2718  -15.1526    0.0000 C   0  0  0  0  0  0  0  0  0  0  0  0
   16.5562  -14.7336    0.0000 C   0  0  0  0  0  0  0  0  0  0  0  0
   15.8414  -15.1412    0.0000 C   0  0  0  0  0  0  0  0  0  0  0  0
   12.9645  -15.9379    0.0000 O   0  0  0  0  0  0  0  0  0  0  0  0
   14.3818  -20.0729    0.0000 O   0  0  0  0  0  0  0  0  0  0  0  0
   15.0961  -19.6603    0.0000 C   0  0  0  0  0  0  0  0  0  0  0  0
   15.8107  -20.0727    0.0000 C   0  0  0  0  0  0  0  0  0  0  0  0
   15.0960  -18.8353    0.0000 O   0  0  0  0  0  0  0  0  0  0  0  0
   10.1027  -20.0758    0.0000 O   0  0  0  0  0  0  0  0  0  0  0  0
    9.3877  -19.6643    0.0000 C   0  0  0  0  0  0  0  0  0  0  0  0
    8.6738  -20.0779    0.0000 C   0  0  0  0  0  0  0  0  0  0  0  0
    9.3864  -18.8394    0.0000 O   0  0  0  0  0  0  0  0  0  0  0  0
   11.5184  -21.4962    0.0000 O   0  0  0  0  0  0  0  0  0  0  0  0
   11.9287  -22.2120    0.0000 C   0  0  0  0  0  0  0  0  0  0  0  0
   11.5139  -22.9251    0.0000 C   0  0  0  0  0  0  0  0  0  0  0  0
   12.7536  -22.2146    0.0000 O   0  0  0  0  0  0  0  0  0  0  0  0
   12.2387  -17.1796    0.0000 O   0  0  0  0  0  0  0  0  0  0  0  0
   12.2332  -18.0123    0.0000 C   0  0  0  0  0  0  0  0  0  0  0  0
   13.6582  -18.0123    0.0000 C   0  0  0  0  0  0  0  0  0  0  0  0
   15.8055  -20.8967    0.0000 C   0  0  0  0  0  0  0  0  0  0  0  0
   16.5192  -21.3090    0.0000 C   0  0  0  0  0  0  0  0  0  0  0  0
   17.2345  -20.8964    0.0000 C   0  0  0  0  0  0  0  0  0  0  0  0
   17.2318  -20.0671    0.0000 C   0  0  0  0  0  0  0  0  0  0  0  0
   16.5176  -19.6586    0.0000 C   0  0  0  0  0  0  0  0  0  0  0  0
   17.9496  -21.3079    0.0000 O   0  0  0  0  0  0  0  0  0  0  0  0
   17.9508  -22.1329    0.0000 C   0  0  0  0  0  0  0  0  0  0  0  0
  2  1  1  6  0  0  0
  2  3  1  1  0  0  0
  5  4  1  0  0  0  0
  4  6  1  0  0  0  0
  2  5  1  0  0  0  0
  8  2  1  0  0  0  0
  7  6  1  0  0  0  0
  7  8  1  0  0  0  0
 11  7  1  1  0  0  0
  8  9  1  1  0  0  0
 10  9  1  0  0  0  0
 12 10  1  0  0  0  0
 11 12  1  0  0  0  0
 11 14  1  0  0  0  0
 12 13  1  0  0  0  0
 13 16  1  0  0  0  0
 14 15  1  0  0  0  0
 15 16  2  0  0  0  0
 15 20  1  0  0  0  0
 16 17  1  0  0  0  0
 17 18  2  0  0  0  0
 18 19  1  0  0  0  0
 19 20  1  0  0  0  0
 21 22  2  0  0  0  0
 22 23  1  0  0  0  0
 23 24  2  0  0  0  0
 24 25  1  0  0  0  0
 25 26  2  0  0  0  0
 26 21  1  0  0  0  0
 18 21  1  0  0  0  0
 20 27  2  0  0  0  0
 10 28  1  1  0  0  0
 28 29  1  0  0  0  0
 29 30  1  0  0  0  0
 29 31  2  0  0  0  0
  5 32  1  1  0  0  0
 32 33  1  0  0  0  0
 33 34  1  0  0  0  0
 33 35  2  0  0  0  0
  1 36  1  0  0  0  0
 36 37  1  0  0  0  0
 37 38  1  0  0  0  0
 37 39  2  0  0  0  0
 14 40  1  1  0  0  0
  7 41  1  1  0  0  0
 12 42  1  1  0  0  0
 30 43  2  0  0  0  0
 43 44  1  0  0  0  0
 44 45  2  0  0  0  0
 45 46  1  0  0  0  0
 46 47  2  0  0  0  0
 47 30  1  0  0  0  0
 45 48  1  0  0  0  0
 48 49  1  0  0  0  0
M  END
> <From>
www.bindingDB.org

> <BindingDB Reactant_set_id>
51053295

> <Ligand InChI>
InChI=1S/C37H41NO11/c1-20(39)45-19-36(4)27-17-29(48-33(42)22-9-11-24(44-6)12-10-22)37(5)32(35(27,3)14-13-28(36)46-21(2)40)31(41)30-26(49-37)16-25(47-34(30)43)23-8-7-15-38-18-23/h7-12,15-16,18,27-29,31-32,41H,13-14,17,19H2,1-6H3/t27-,28+,29+,31+,32-,35+,36+,37-/m1/s1

> <Ligand InChI Key>
WIYPRMUSDJLXEC-ZRPSWOMSSA-N

> <BindingDB MonomerID>
50429605

> <BindingDB Ligand Name>
CHEMBL2334538

> <Target Name>
Sterol O-acyltransferase 2

> <Target Source Organism According to Curator or DataSource>


> <Ki (nM)>


> <IC50 (nM)>
 0.800000

> <Kd (nM)>


> <EC50 (nM)>


> <kon (M-1-s-1)>


> <koff (s-1)>


> <pH>


> <Temp (C)>


> <Curation/DataSource>
ChEMBL

> <Article DOI>
10.1016/j.bmcl.2012.12.099

> <BindingDB Entry DOI>
10.7270/Q2P270HW

> <PMID>
23369538

> <PubChem AID>


> <Patent Number>


> <Authors>
Ohtawa, M; Yamazaki, H; Ohte, S; Matsuda, D; Ohshiro, T; Rudel, LL; Omura, S; Tomoda, H; Nagamitsu, T

> <Institution>
Kitasato University

> <Link to Ligand in BindingDB>
http://www.bindingdb.org/bind/chemsearch/marvin/MolStructure.jsp?monomerid=50429605

> <Link to Target in BindingDB>
http://www.bindingdb.org/jsp/dbsearch/PrimarySearch_ki.jsp?energyterm=kJ/mole&tag=pol&polymerid=7773&target=Sterol+O-acyltransferase+2&column=ki&startPg=0&Increment=50&submit=Search

> <Link to Ligand-Target Pair in BindingDB>
http://www.bindingdb.org/jsp/dbsearch/PrimarySearch_ki.jsp?energyterm=kJ/mole&tag=r21&monomerid=50429605&enzyme=Sterol+O-acyltransferase+2&column=ki&startPg=0&Increment=50&submit=Search

> <Ligand HET ID in PDB>


> <PDB ID(s) for Ligand-Target Complex>


> <PubChem CID>
71560676

> <PubChem SID>
164158480

> <ChEBI ID of Ligand>


> <ChEMBL ID of Ligand>
CHEMBL2334538

> <DrugBank ID of Ligand>


> <IUPHAR_GRAC ID of Ligand>


> <KEGG ID of Ligand>


> <ZINC ID of Ligand>
ZINC95590887

> <Number of Protein Chains in Target (>1 implies a multichain complex)>
1

> <BindingDB Target Chain Sequence>
MEPGGARLRLQRTEGLGGERERQPCGDGNTETHRAPDLVQWTRHMEAVKAQLLEQAQGQLRELLDRAMREAIQSYPSQDKPLPPPPPGSLSRTQEPSLGKQKVFIIRKSLLDELMEVQHFRTIYHMFIAGLCVFIISTLAIDFIDEGRLLLEFDLLIFSFGQLPLALVTWVPMFLSTLLAPYQALRLWARGTWTQATGLGCALLAAHAVVLCALPVHVAVEHQLPPASRCVLVFEQVRFLMKSYSFLREAVPGTLRARRGEGIQAPSFSSYLYFLFCPTLIYRETYPRTPYVRWNYVAKNFAQALGCVLYACFILGRLCVPVFANMSREPFSTRALVLSILHATLPGIFMLLLIFFAFLHCWLNAFAEMLRFGDRMFYRDWWNSTSFSNYYRTWNVVVHDWLYSYVYQDGLRLLGARARGVAMLGVFLVSAVAHEYIFCFVLGFFYPVMLILFLVIGGMLNFMMHDQRTGPAWNVLMWTMLFLGQGIQVSLYCQEWYARRHCPLPQATFWGLVTPRSWSCHT

> <PDB ID(s) of Target Chain>


> <UniProt (SwissProt) Recommended Name of Target Chain>
Sterol O-acyltransferase 2

> <UniProt (SwissProt) Entry Name of Target Chain>
ACAT-2

> <UniProt (SwissProt) Primary ID of Target Chain>
O75908

> <UniProt (SwissProt) Secondary ID(s) of Target Chain>
F5H7W4 I6L9H9 Q4VB99 Q4VBA1 Q96TD4 Q9UNR2

> <UniProt (SwissProt) Alternative ID(s) of Target Chain>


> <UniProt (TrEMBL) Submitted Name of Target Chain>


> <UniProt (TrEMBL) Entry Name of Target Chain>


> <UniProt (TrEMBL) Primary ID of Target Chain>


> <UniProt (TrEMBL) Secondary ID(s) of Target Chain>


> <UniProt (TrEMBL) Alternative ID(s) of Target Chain>


$$$$

  Mrv0541 11241417102D          

 49 54  0  0  0  0            999 V2000
   22.9089  -20.5464    0.0000 C   0  0  0  0  0  0  0  0  0  0  0  0
   22.5005  -19.8338    0.0000 C   0  0  2  0  0  0  0  0  0  0  0  0
   22.0877  -20.5437    0.0000 C   0  0  0  0  0  0  0  0  0  0  0  0
   21.7922  -18.6004    0.0000 C   0  0  0  0  0  0  0  0  0  0  0  0
   21.7922  -19.4254    0.0000 C   0  0  2  0  0  0  0  0  0  0  0  0
   22.5042  -18.1837    0.0000 C   0  0  0  0  0  0  0  0  0  0  0  0
   23.2163  -18.6004    0.0000 C   0  0  1  0  0  0  0  0  0  0  0  0
   23.2173  -19.4254    0.0000 C   0  0  1  0  0  0  0  0  0  0  0  0
   23.9284  -19.8348    0.0000 C   0  0  0  0  0  0  0  0  0  0  0  0
   24.6429  -19.4236    0.0000 C   0  0  1  0  0  0  0  0  0  0  0  0
   23.9262  -18.1848    0.0000 C   0  0  2  0  0  0  0  0  0  0  0  0
   24.6415  -18.6032    0.0000 C   0  0  2  0  0  0  0  0  0  0  0  0
   25.3576  -18.1954    0.0000 O   0  0  0  0  0  0  0  0  0  0  0  0
   23.9271  -17.3583    0.0000 C   0  0  2  0  0  0  0  0  0  0  0  0
   24.6494  -16.9488    0.0000 C   0  0  0  0  0  0  0  0  0  0  0  0
   25.3675  -17.3710    0.0000 C   0  0  0  0  0  0  0  0  0  0  0  0
   26.0883  -16.9625    0.0000 C   0  0  0  0  0  0  0  0  0  0  0  0
   26.0971  -16.1301    0.0000 C   0  0  0  0  0  0  0  0  0  0  0  0
   25.3790  -15.7080    0.0000 O   0  0  0  0  0  0  0  0  0  0  0  0
   24.6520  -16.1180    0.0000 C   0  0  0  0  0  0  0  0  0  0  0  0
   26.8109  -15.7258    0.0000 C   0  0  0  0  0  0  0  0  0  0  0  0
   27.5218  -16.1467    0.0000 C   0  0  0  0  0  0  0  0  0  0  0  0
   28.2396  -15.7415    0.0000 N   0  0  0  0  0  0  0  0  0  0  0  0
   28.2476  -14.9156    0.0000 C   0  0  0  0  0  0  0  0  0  0  0  0
   27.5321  -14.4967    0.0000 C   0  0  0  0  0  0  0  0  0  0  0  0
   26.8172  -14.9042    0.0000 C   0  0  0  0  0  0  0  0  0  0  0  0
   23.9402  -15.7010    0.0000 O   0  0  0  0  0  0  0  0  0  0  0  0
   25.3575  -19.8360    0.0000 O   0  0  0  0  0  0  0  0  0  0  0  0
   26.0719  -19.4234    0.0000 C   0  0  0  0  0  0  0  0  0  0  0  0
   26.7865  -19.8358    0.0000 C   0  0  0  0  0  0  0  0  0  0  0  0
   26.0718  -18.5985    0.0000 O   0  0  0  0  0  0  0  0  0  0  0  0
   21.0783  -19.8391    0.0000 O   0  0  0  0  0  0  0  0  0  0  0  0
   20.3632  -19.4275    0.0000 C   0  0  0  0  0  0  0  0  0  0  0  0
   19.6494  -19.8411    0.0000 C   0  0  0  0  0  0  0  0  0  0  0  0
   20.3620  -18.6025    0.0000 O   0  0  0  0  0  0  0  0  0  0  0  0
   22.4940  -21.2595    0.0000 O   0  0  0  0  0  0  0  0  0  0  0  0
   22.9043  -21.9753    0.0000 C   0  0  0  0  0  0  0  0  0  0  0  0
   22.4895  -22.6885    0.0000 C   0  0  0  0  0  0  0  0  0  0  0  0
   23.7294  -21.9779    0.0000 O   0  0  0  0  0  0  0  0  0  0  0  0
   23.2145  -16.9427    0.0000 O   0  0  0  0  0  0  0  0  0  0  0  0
   23.2089  -17.7755    0.0000 C   0  0  0  0  0  0  0  0  0  0  0  0
   24.6340  -17.7755    0.0000 C   0  0  0  0  0  0  0  0  0  0  0  0
   26.7813  -20.6599    0.0000 C   0  0  0  0  0  0  0  0  0  0  0  0
   27.4950  -21.0723    0.0000 C   0  0  0  0  0  0  0  0  0  0  0  0
   28.2104  -20.6595    0.0000 C   0  0  0  0  0  0  0  0  0  0  0  0
   28.2077  -19.8303    0.0000 C   0  0  0  0  0  0  0  0  0  0  0  0
   27.4934  -19.4217    0.0000 C   0  0  0  0  0  0  0  0  0  0  0  0
   28.9239  -21.0652    0.0000 C   0  0  0  0  0  0  0  0  0  0  0  0
   29.6389  -21.4766    0.0000 N   0  0  0  0  0  0  0  0  0  0  0  0
  2  1  1  6  0  0  0
  2  3  1  1  0  0  0
  5  4  1  0  0  0  0
  4  6  1  0  0  0  0
  2  5  1  0  0  0  0
  8  2  1  0  0  0  0
  7  6  1  0  0  0  0
  7  8  1  0  0  0  0
 11  7  1  1  0  0  0
  8  9  1  1  0  0  0
 10  9  1  0  0  0  0
 12 10  1  0  0  0  0
 11 12  1  0  0  0  0
 11 14  1  0  0  0  0
 12 13  1  0  0  0  0
 13 16  1  0  0  0  0
 14 15  1  0  0  0  0
 15 16  2  0  0  0  0
 15 20  1  0  0  0  0
 16 17  1  0  0  0  0
 17 18  2  0  0  0  0
 18 19  1  0  0  0  0
 19 20  1  0  0  0  0
 21 22  2  0  0  0  0
 22 23  1  0  0  0  0
 23 24  2  0  0  0  0
 24 25  1  0  0  0  0
 25 26  2  0  0  0  0
 26 21  1  0  0  0  0
 18 21  1  0  0  0  0
 20 27  2  0  0  0  0
 10 28  1  1  0  0  0
 28 29  1  0  0  0  0
 29 30  1  0  0  0  0
 29 31  2  0  0  0  0
  5 32  1  1  0  0  0
 32 33  1  0  0  0  0
 33 34  1  0  0  0  0
 33 35  2  0  0  0  0
  1 36  1  0  0  0  0
 36 37  1  0  0  0  0
 37 38  1  0  0  0  0
 37 39  2  0  0  0  0
 14 40  1  1  0  0  0
  7 41  1  1  0  0  0
 12 42  1  1  0  0  0
 30 43  2  0  0  0  0
 43 44  1  0  0  0  0
 44 45  2  0  0  0  0
 45 46  1  0  0  0  0
 46 47  2  0  0  0  0
 47 30  1  0  0  0  0
 48 49  3  0  0  0  0
 45 48  1  0  0  0  0
M  END
> <From>
www.bindingDB.org

> <BindingDB Reactant_set_id>
51053294

> <Ligand InChI>
InChI=1S/C37H38N2O10/c1-20(40)45-19-36(4)27-16-29(48-33(43)23-10-8-22(17-38)9-11-23)37(5)32(35(27,3)13-12-28(36)46-21(2)41)31(42)30-26(49-37)15-25(47-34(30)44)24-7-6-14-39-18-24/h6-11,14-15,18,27-29,31-32,42H,12-13,16,19H2,1-5H3/t27-,28+,29+,31+,32-,35+,36+,37-/m1/s1

> <Ligand InChI Key>
HBSJDWOXHMSOQS-ZRPSWOMSSA-N

> <BindingDB MonomerID>
50429604

> <BindingDB Ligand Name>
CHEMBL2334539

> <Target Name>
Sterol O-acyltransferase 2

> <Target Source Organism According to Curator or DataSource>


> <Ki (nM)>


> <IC50 (nM)>
 0.900000

> <Kd (nM)>


> <EC50 (nM)>


> <kon (M-1-s-1)>


> <koff (s-1)>


> <pH>


> <Temp (C)>


> <Curation/DataSource>
ChEMBL

> <Article DOI>
10.1016/j.bmcl.2012.12.099

> <BindingDB Entry DOI>
10.7270/Q2P270HW

> <PMID>
23369538

> <PubChem AID>


> <Patent Number>


> <Authors>
Ohtawa, M; Yamazaki, H; Ohte, S; Matsuda, D; Ohshiro, T; Rudel, LL; Omura, S; Tomoda, H; Nagamitsu, T

> <Institution>
Kitasato University

> <Link to Ligand in BindingDB>
http://www.bindingdb.org/bind/chemsearch/marvin/MolStructure.jsp?monomerid=50429604

> <Link to Target in BindingDB>
http://www.bindingdb.org/jsp/dbsearch/PrimarySearch_ki.jsp?energyterm=kJ/mole&tag=pol&polymerid=7773&target=Sterol+O-acyltransferase+2&column=ki&startPg=0&Increment=50&submit=Search

> <Link to Ligand-Target Pair in BindingDB>
http://www.bindingdb.org/jsp/dbsearch/PrimarySearch_ki.jsp?energyterm=kJ/mole&tag=r21&monomerid=50429604&enzyme=Sterol+O-acyltransferase+2&column=ki&startPg=0&Increment=50&submit=Search

> <Ligand HET ID in PDB>


> <PDB ID(s) for Ligand-Target Complex>


> <PubChem CID>
71560677

> <PubChem SID>
164158479

> <ChEBI ID of Ligand>


> <ChEMBL ID of Ligand>
CHEMBL2334539

> <DrugBank ID of Ligand>


> <IUPHAR_GRAC ID of Ligand>


> <KEGG ID of Ligand>


> <ZINC ID of Ligand>
ZINC68150014

> <Number of Protein Chains in Target (>1 implies a multichain complex)>
1

> <BindingDB Target Chain Sequence>
MEPGGARLRLQRTEGLGGERERQPCGDGNTETHRAPDLVQWTRHMEAVKAQLLEQAQGQLRELLDRAMREAIQSYPSQDKPLPPPPPGSLSRTQEPSLGKQKVFIIRKSLLDELMEVQHFRTIYHMFIAGLCVFIISTLAIDFIDEGRLLLEFDLLIFSFGQLPLALVTWVPMFLSTLLAPYQALRLWARGTWTQATGLGCALLAAHAVVLCALPVHVAVEHQLPPASRCVLVFEQVRFLMKSYSFLREAVPGTLRARRGEGIQAPSFSSYLYFLFCPTLIYRETYPRTPYVRWNYVAKNFAQALGCVLYACFILGRLCVPVFANMSREPFSTRALVLSILHATLPGIFMLLLIFFAFLHCWLNAFAEMLRFGDRMFYRDWWNSTSFSNYYRTWNVVVHDWLYSYVYQDGLRLLGARARGVAMLGVFLVSAVAHEYIFCFVLGFFYPVMLILFLVIGGMLNFMMHDQRTGPAWNVLMWTMLFLGQGIQVSLYCQEWYARRHCPLPQATFWGLVTPRSWSCHT

> <PDB ID(s) of Target Chain>


> <UniProt (SwissProt) Recommended Name of Target Chain>
Sterol O-acyltransferase 2

> <UniProt (SwissProt) Entry Name of Target Chain>
ACAT-2

> <UniProt (SwissProt) Primary ID of Target Chain>
O75908

> <UniProt (SwissProt) Secondary ID(s) of Target Chain>
F5H7W4 I6L9H9 Q4VB99 Q4VBA1 Q96TD4 Q9UNR2

> <UniProt (SwissProt) Alternative ID(s) of Target Chain>


> <UniProt (TrEMBL) Submitted Name of Target Chain>


> <UniProt (TrEMBL) Entry Name of Target Chain>


> <UniProt (TrEMBL) Primary ID of Target Chain>


> <UniProt (TrEMBL) Secondary ID(s) of Target Chain>


> <UniProt (TrEMBL) Alternative ID(s) of Target Chain>


$$$$

  Mrv0541 11241417102D          

 49 54  0  0  0  0            999 V2000
   22.9089  -20.5464    0.0000 C   0  0  0  0  0  0  0  0  0  0  0  0
   22.5005  -19.8338    0.0000 C   0  0  2  0  0  0  0  0  0  0  0  0
   22.0877  -20.5437    0.0000 C   0  0  0  0  0  0  0  0  0  0  0  0
   21.7922  -18.6004    0.0000 C   0  0  0  0  0  0  0  0  0  0  0  0
   21.7922  -19.4254    0.0000 C   0  0  2  0  0  0  0  0  0  0  0  0
   22.5042  -18.1837    0.0000 C   0  0  0  0  0  0  0  0  0  0  0  0
   23.2163  -18.6004    0.0000 C   0  0  1  0  0  0  0  0  0  0  0  0
   23.2173  -19.4254    0.0000 C   0  0  1  0  0  0  0  0  0  0  0  0
   23.9284  -19.8348    0.0000 C   0  0  0  0  0  0  0  0  0  0  0  0
   24.6429  -19.4236    0.0000 C   0  0  1  0  0  0  0  0  0  0  0  0
   23.9262  -18.1848    0.0000 C   0  0  2  0  0  0  0  0  0  0  0  0
   24.6415  -18.6032    0.0000 C   0  0  2  0  0  0  0  0  0  0  0  0
   25.3576  -18.1954    0.0000 O   0  0  0  0  0  0  0  0  0  0  0  0
   23.9271  -17.3583    0.0000 C   0  0  2  0  0  0  0  0  0  0  0  0
   24.6494  -16.9488    0.0000 C   0  0  0  0  0  0  0  0  0  0  0  0
   25.3675  -17.3710    0.0000 C   0  0  0  0  0  0  0  0  0  0  0  0
   26.0883  -16.9625    0.0000 C   0  0  0  0  0  0  0  0  0  0  0  0
   26.0971  -16.1301    0.0000 C   0  0  0  0  0  0  0  0  0  0  0  0
   25.3790  -15.7080    0.0000 O   0  0  0  0  0  0  0  0  0  0  0  0
   24.6520  -16.1180    0.0000 C   0  0  0  0  0  0  0  0  0  0  0  0
   26.8109  -15.7258    0.0000 C   0  0  0  0  0  0  0  0  0  0  0  0
   27.5218  -16.1467    0.0000 C   0  0  0  0  0  0  0  0  0  0  0  0
   28.2396  -15.7415    0.0000 N   0  0  0  0  0  0  0  0  0  0  0  0
   28.2476  -14.9156    0.0000 C   0  0  0  0  0  0  0  0  0  0  0  0
   27.5321  -14.4967    0.0000 C   0  0  0  0  0  0  0  0  0  0  0  0
   26.8172  -14.9042    0.0000 C   0  0  0  0  0  0  0  0  0  0  0  0
   23.9402  -15.7010    0.0000 O   0  0  0  0  0  0  0  0  0  0  0  0
   25.3575  -19.8360    0.0000 O   0  0  0  0  0  0  0  0  0  0  0  0
   26.0719  -19.4234    0.0000 C   0  0  0  0  0  0  0  0  0  0  0  0
   26.7865  -19.8358    0.0000 C   0  0  0  0  0  0  0  0  0  0  0  0
   26.0718  -18.5985    0.0000 O   0  0  0  0  0  0  0  0  0  0  0  0
   21.0783  -19.8391    0.0000 O   0  0  0  0  0  0  0  0  0  0  0  0
   20.3632  -19.4275    0.0000 C   0  0  0  0  0  0  0  0  0  0  0  0
   19.6494  -19.8411    0.0000 C   0  0  0  0  0  0  0  0  0  0  0  0
   20.3620  -18.6025    0.0000 O   0  0  0  0  0  0  0  0  0  0  0  0
   22.4940  -21.2595    0.0000 O   0  0  0  0  0  0  0  0  0  0  0  0
   22.9043  -21.9753    0.0000 C   0  0  0  0  0  0  0  0  0  0  0  0
   22.4895  -22.6885    0.0000 C   0  0  0  0  0  0  0  0  0  0  0  0
   23.7294  -21.9779    0.0000 O   0  0  0  0  0  0  0  0  0  0  0  0
   23.2145  -16.9427    0.0000 O   0  0  0  0  0  0  0  0  0  0  0  0
   23.2089  -17.7755    0.0000 C   0  0  0  0  0  0  0  0  0  0  0  0
   24.6340  -17.7755    0.0000 C   0  0  0  0  0  0  0  0  0  0  0  0
   26.7813  -20.6599    0.0000 C   0  0  0  0  0  0  0  0  0  0  0  0
   27.4950  -21.0723    0.0000 C   0  0  0  0  0  0  0  0  0  0  0  0
   28.2104  -20.6595    0.0000 C   0  0  0  0  0  0  0  0  0  0  0  0
   28.2077  -19.8303    0.0000 C   0  0  0  0  0  0  0  0  0  0  0  0
   27.4934  -19.4217    0.0000 C   0  0  0  0  0  0  0  0  0  0  0  0
   28.9239  -21.0652    0.0000 C   0  0  0  0  0  0  0  0  0  0  0  0
   29.6389  -21.4766    0.0000 N   0  0  0  0  0  0  0  0  0  0  0  0
  2  1  1  6  0  0  0
  2  3  1  1  0  0  0
  5  4  1  0  0  0  0
  4  6  1  0  0  0  0
  2  5  1  0  0  0  0
  8  2  1  0  0  0  0
  7  6  1  0  0  0  0
  7  8  1  0  0  0  0
 11  7  1  1  0  0  0
  8  9  1  1  0  0  0
 10  9  1  0  0  0  0
 12 10  1  0  0  0  0
 11 12  1  0  0  0  0
 11 14  1  0  0  0  0
 12 13  1  0  0  0  0
 13 16  1  0  0  0  0
 14 15  1  0  0  0  0
 15 16  2  0  0  0  0
 15 20  1  0  0  0  0
 16 17  1  0  0  0  0
 17 18  2  0  0  0  0
 18 19  1  0  0  0  0
 19 20  1  0  0  0  0
 21 22  2  0  0  0  0
 22 23  1  0  0  0  0
 23 24  2  0  0  0  0
 24 25  1  0  0  0  0
 25 26  2  0  0  0  0
 26 21  1  0  0  0  0
 18 21  1  0  0  0  0
 20 27  2  0  0  0  0
 10 28  1  1  0  0  0
 28 29  1  0  0  0  0
 29 30  1  0  0  0  0
 29 31  2  0  0  0  0
  5 32  1  1  0  0  0
 32 33  1  0  0  0  0
 33 34  1  0  0  0  0
 33 35  2  0  0  0  0
  1 36  1  0  0  0  0
 36 37  1  0  0  0  0
 37 38  1  0  0  0  0
 37 39  2  0  0  0  0
 14 40  1  1  0  0  0
  7 41  1  1  0  0  0
 12 42  1  1  0  0  0
 30 43  2  0  0  0  0
 43 44  1  0  0  0  0
 44 45  2  0  0  0  0
 45 46  1  0  0  0  0
 46 47  2  0  0  0  0
 47 30  1  0  0  0  0
 48 49  3  0  0  0  0
 45 48  1  0  0  0  0
M  END
> <From>
www.bindingDB.org

> <BindingDB Reactant_set_id>
51068473

> <Ligand InChI>
InChI=1S/C37H38N2O10/c1-20(40)45-19-36(4)27-16-29(48-33(43)23-10-8-22(17-38)9-11-23)37(5)32(35(27,3)13-12-28(36)46-21(2)41)31(42)30-26(49-37)15-25(47-34(30)44)24-7-6-14-39-18-24/h6-11,14-15,18,27-29,31-32,42H,12-13,16,19H2,1-5H3/t27-,28+,29+,31+,32-,35+,36+,37-/m1/s1

> <Ligand InChI Key>
HBSJDWOXHMSOQS-ZRPSWOMSSA-N

> <BindingDB MonomerID>
50429604

> <BindingDB Ligand Name>
CHEMBL2334539

> <Target Name>
Sterol O-acyltransferase 2

> <Target Source Organism According to Curator or DataSource>


> <Ki (nM)>


> <IC50 (nM)>
 0.900000

> <Kd (nM)>


> <EC50 (nM)>


> <kon (M-1-s-1)>


> <koff (s-1)>


> <pH>


> <Temp (C)>


> <Curation/DataSource>
ChEMBL

> <Article DOI>
10.1016/j.bmcl.2013.04.075

> <BindingDB Entry DOI>
10.7270/Q2WD41Z9

> <PMID>
23711919

> <PubChem AID>


> <Patent Number>


> <Authors>
Ohtawa, M; Yamazaki, H; Ohte, S; Matsuda, D; Ohshiro, T; Rudel, LL; Omura, S; Tomoda, H; Nagamitsu, T

> <Institution>
Kitasato University

> <Link to Ligand in BindingDB>
http://www.bindingdb.org/bind/chemsearch/marvin/MolStructure.jsp?monomerid=50429604

> <Link to Target in BindingDB>
http://www.bindingdb.org/jsp/dbsearch/PrimarySearch_ki.jsp?energyterm=kJ/mole&tag=pol&polymerid=7773&target=Sterol+O-acyltransferase+2&column=ki&startPg=0&Increment=50&submit=Search

> <Link to Ligand-Target Pair in BindingDB>
http://www.bindingdb.org/jsp/dbsearch/PrimarySearch_ki.jsp?energyterm=kJ/mole&tag=r21&monomerid=50429604&enzyme=Sterol+O-acyltransferase+2&column=ki&startPg=0&Increment=50&submit=Search

> <Ligand HET ID in PDB>


> <PDB ID(s) for Ligand-Target Complex>


> <PubChem CID>
71560677

> <PubChem SID>
164158479

> <ChEBI ID of Ligand>


> <ChEMBL ID of Ligand>
CHEMBL2334539

> <DrugBank ID of Ligand>


> <IUPHAR_GRAC ID of Ligand>


> <KEGG ID of Ligand>


> <ZINC ID of Ligand>
ZINC68150014

> <Number of Protein Chains in Target (>1 implies a multichain complex)>
1

> <BindingDB Target Chain Sequence>
MEPGGARLRLQRTEGLGGERERQPCGDGNTETHRAPDLVQWTRHMEAVKAQLLEQAQGQLRELLDRAMREAIQSYPSQDKPLPPPPPGSLSRTQEPSLGKQKVFIIRKSLLDELMEVQHFRTIYHMFIAGLCVFIISTLAIDFIDEGRLLLEFDLLIFSFGQLPLALVTWVPMFLSTLLAPYQALRLWARGTWTQATGLGCALLAAHAVVLCALPVHVAVEHQLPPASRCVLVFEQVRFLMKSYSFLREAVPGTLRARRGEGIQAPSFSSYLYFLFCPTLIYRETYPRTPYVRWNYVAKNFAQALGCVLYACFILGRLCVPVFANMSREPFSTRALVLSILHATLPGIFMLLLIFFAFLHCWLNAFAEMLRFGDRMFYRDWWNSTSFSNYYRTWNVVVHDWLYSYVYQDGLRLLGARARGVAMLGVFLVSAVAHEYIFCFVLGFFYPVMLILFLVIGGMLNFMMHDQRTGPAWNVLMWTMLFLGQGIQVSLYCQEWYARRHCPLPQATFWGLVTPRSWSCHT

> <PDB ID(s) of Target Chain>


> <UniProt (SwissProt) Recommended Name of Target Chain>
Sterol O-acyltransferase 2

> <UniProt (SwissProt) Entry Name of Target Chain>
ACAT-2

> <UniProt (SwissProt) Primary ID of Target Chain>
O75908

> <UniProt (SwissProt) Secondary ID(s) of Target Chain>
F5H7W4 I6L9H9 Q4VB99 Q4VBA1 Q96TD4 Q9UNR2

> <UniProt (SwissProt) Alternative ID(s) of Target Chain>


> <UniProt (TrEMBL) Submitted Name of Target Chain>


> <UniProt (TrEMBL) Entry Name of Target Chain>


> <UniProt (TrEMBL) Primary ID of Target Chain>


> <UniProt (TrEMBL) Secondary ID(s) of Target Chain>


> <UniProt (TrEMBL) Alternative ID(s) of Target Chain>


$$$$

  Mrv0541 11241417102D          

 48 53  0  0  0  0            999 V2000
   33.5913   -4.6917    0.0000 C   0  0  0  0  0  0  0  0  0  0  0  0
   33.1829   -3.9791    0.0000 C   0  0  2  0  0  0  0  0  0  0  0  0
   32.7701   -4.6890    0.0000 C   0  0  0  0  0  0  0  0  0  0  0  0
   32.4746   -2.7458    0.0000 C   0  0  0  0  0  0  0  0  0  0  0  0
   32.4746   -3.5708    0.0000 C   0  0  2  0  0  0  0  0  0  0  0  0
   33.1867   -2.3291    0.0000 C   0  0  0  0  0  0  0  0  0  0  0  0
   33.8987   -2.7458    0.0000 C   0  0  1  0  0  0  0  0  0  0  0  0
   33.8997   -3.5708    0.0000 C   0  0  1  0  0  0  0  0  0  0  0  0
   34.6107   -3.9801    0.0000 C   0  0  0  0  0  0  0  0  0  0  0  0
   35.3253   -3.5689    0.0000 C   0  0  1  0  0  0  0  0  0  0  0  0
   34.6087   -2.3301    0.0000 C   0  0  2  0  0  0  0  0  0  0  0  0
   35.3239   -2.7486    0.0000 C   0  0  2  0  0  0  0  0  0  0  0  0
   36.0399   -2.3407    0.0000 O   0  0  0  0  0  0  0  0  0  0  0  0
   34.6095   -1.5037    0.0000 C   0  0  2  0  0  0  0  0  0  0  0  0
   35.3318   -1.0942    0.0000 C   0  0  0  0  0  0  0  0  0  0  0  0
   36.0499   -1.5164    0.0000 C   0  0  0  0  0  0  0  0  0  0  0  0
   36.7705   -1.1079    0.0000 C   0  0  0  0  0  0  0  0  0  0  0  0
   36.7794   -0.2755    0.0000 C   0  0  0  0  0  0  0  0  0  0  0  0
   36.0613    0.1533    0.0000 O   0  0  0  0  0  0  0  0  0  0  0  0
   35.3344   -0.2635    0.0000 C   0  0  0  0  0  0  0  0  0  0  0  0
   37.4932    0.1296    0.0000 C   0  0  0  0  0  0  0  0  0  0  0  0
   38.2041   -0.2922    0.0000 C   0  0  0  0  0  0  0  0  0  0  0  0
   38.9218    0.1202    0.0000 N   0  0  0  0  0  0  0  0  0  0  0  0
   38.9300    0.9444    0.0000 C   0  0  0  0  0  0  0  0  0  0  0  0
   38.2143    1.3587    0.0000 C   0  0  0  0  0  0  0  0  0  0  0  0
   37.4994    0.9581    0.0000 C   0  0  0  0  0  0  0  0  0  0  0  0
   34.6226    0.1548    0.0000 O   0  0  0  0  0  0  0  0  0  0  0  0
   36.0398   -3.9813    0.0000 O   0  0  0  0  0  0  0  0  0  0  0  0
   36.7542   -3.5687    0.0000 C   0  0  0  0  0  0  0  0  0  0  0  0
   37.4688   -3.9811    0.0000 C   0  0  0  0  0  0  0  0  0  0  0  0
   36.7541   -2.7438    0.0000 O   0  0  0  0  0  0  0  0  0  0  0  0
   31.7608   -3.9844    0.0000 O   0  0  0  0  0  0  0  0  0  0  0  0
   31.0457   -3.5729    0.0000 C   0  0  0  0  0  0  0  0  0  0  0  0
   30.3319   -3.9864    0.0000 C   0  0  0  0  0  0  0  0  0  0  0  0
   31.0445   -2.7479    0.0000 O   0  0  0  0  0  0  0  0  0  0  0  0
   33.1766   -5.4048    0.0000 O   0  0  0  0  0  0  0  0  0  0  0  0
   33.5867   -6.1206    0.0000 C   0  0  0  0  0  0  0  0  0  0  0  0
   33.1719   -6.8337    0.0000 C   0  0  0  0  0  0  0  0  0  0  0  0
   34.4117   -6.1232    0.0000 O   0  0  0  0  0  0  0  0  0  0  0  0
   33.8969   -1.0881    0.0000 O   0  0  0  0  0  0  0  0  0  0  0  0
   33.8913   -1.9209    0.0000 C   0  0  0  0  0  0  0  0  0  0  0  0
   35.3163   -1.9209    0.0000 C   0  0  0  0  0  0  0  0  0  0  0  0
   37.4636   -4.8052    0.0000 C   0  0  0  0  0  0  0  0  0  0  0  0
   38.1772   -5.2175    0.0000 C   0  0  0  0  0  0  0  0  0  0  0  0
   38.8927   -4.8048    0.0000 C   0  0  0  0  0  0  0  0  0  0  0  0
   38.8899   -3.9756    0.0000 C   0  0  0  0  0  0  0  0  0  0  0  0
   38.1756   -3.5670    0.0000 C   0  0  0  0  0  0  0  0  0  0  0  0
   39.6078   -5.2163    0.0000 C   0  0  0  0  0  0  0  0  0  0  0  0
  2  1  1  6  0  0  0
  2  3  1  1  0  0  0
  5  4  1  0  0  0  0
  4  6  1  0  0  0  0
  2  5  1  0  0  0  0
  8  2  1  0  0  0  0
  7  6  1  0  0  0  0
  7  8  1  0  0  0  0
 11  7  1  1  0  0  0
  8  9  1  1  0  0  0
 10  9  1  0  0  0  0
 12 10  1  0  0  0  0
 11 12  1  0  0  0  0
 11 14  1  0  0  0  0
 12 13  1  0  0  0  0
 13 16  1  0  0  0  0
 14 15  1  0  0  0  0
 15 16  2  0  0  0  0
 15 20  1  0  0  0  0
 16 17  1  0  0  0  0
 17 18  2  0  0  0  0
 18 19  1  0  0  0  0
 19 20  1  0  0  0  0
 21 22  2  0  0  0  0
 22 23  1  0  0  0  0
 23 24  2  0  0  0  0
 24 25  1  0  0  0  0
 25 26  2  0  0  0  0
 26 21  1  0  0  0  0
 18 21  1  0  0  0  0
 20 27  2  0  0  0  0
 10 28  1  1  0  0  0
 28 29  1  0  0  0  0
 29 30  1  0  0  0  0
 29 31  2  0  0  0  0
  5 32  1  1  0  0  0
 32 33  1  0  0  0  0
 33 34  1  0  0  0  0
 33 35  2  0  0  0  0
  1 36  1  0  0  0  0
 36 37  1  0  0  0  0
 37 38  1  0  0  0  0
 37 39  2  0  0  0  0
 14 40  1  1  0  0  0
  7 41  1  1  0  0  0
 12 42  1  1  0  0  0
 30 43  2  0  0  0  0
 43 44  1  0  0  0  0
 44 45  2  0  0  0  0
 45 46  1  0  0  0  0
 46 47  2  0  0  0  0
 47 30  1  0  0  0  0
 45 48  1  0  0  0  0
M  END
> <From>
www.bindingDB.org

> <BindingDB Reactant_set_id>
51053301

> <Ligand InChI>
InChI=1S/C37H41NO10/c1-20-9-11-23(12-10-20)33(42)47-29-17-27-35(4,14-13-28(45-22(3)40)36(27,5)19-44-21(2)39)32-31(41)30-26(48-37(29,32)6)16-25(46-34(30)43)24-8-7-15-38-18-24/h7-12,15-16,18,27-29,31-32,41H,13-14,17,19H2,1-6H3/t27-,28+,29+,31+,32-,35+,36+,37-/m1/s1

> <Ligand InChI Key>
PXWLUSGRVNCIQG-ZRPSWOMSSA-N

> <BindingDB MonomerID>
50429610

> <BindingDB Ligand Name>
CHEMBL2334222

> <Target Name>
Sterol O-acyltransferase 2

> <Target Source Organism According to Curator or DataSource>


> <Ki (nM)>


> <IC50 (nM)>
 0.900000

> <Kd (nM)>


> <EC50 (nM)>


> <kon (M-1-s-1)>


> <koff (s-1)>


> <pH>


> <Temp (C)>


> <Curation/DataSource>
ChEMBL

> <Article DOI>
10.1016/j.bmcl.2012.12.099

> <BindingDB Entry DOI>
10.7270/Q2P270HW

> <PMID>
23369538

> <PubChem AID>


> <Patent Number>


> <Authors>
Ohtawa, M; Yamazaki, H; Ohte, S; Matsuda, D; Ohshiro, T; Rudel, LL; Omura, S; Tomoda, H; Nagamitsu, T

> <Institution>
Kitasato University

> <Link to Ligand in BindingDB>
http://www.bindingdb.org/bind/chemsearch/marvin/MolStructure.jsp?monomerid=50429610

> <Link to Target in BindingDB>
http://www.bindingdb.org/jsp/dbsearch/PrimarySearch_ki.jsp?energyterm=kJ/mole&tag=pol&polymerid=7773&target=Sterol+O-acyltransferase+2&column=ki&startPg=0&Increment=50&submit=Search

> <Link to Ligand-Target Pair in BindingDB>
http://www.bindingdb.org/jsp/dbsearch/PrimarySearch_ki.jsp?energyterm=kJ/mole&tag=r21&monomerid=50429610&enzyme=Sterol+O-acyltransferase+2&column=ki&startPg=0&Increment=50&submit=Search

> <Ligand HET ID in PDB>


> <PDB ID(s) for Ligand-Target Complex>


> <PubChem CID>
71560549

> <PubChem SID>
164158485

> <ChEBI ID of Ligand>


> <ChEMBL ID of Ligand>
CHEMBL2334222

> <DrugBank ID of Ligand>


> <IUPHAR_GRAC ID of Ligand>


> <KEGG ID of Ligand>


> <ZINC ID of Ligand>
ZINC95592390

> <Number of Protein Chains in Target (>1 implies a multichain complex)>
1

> <BindingDB Target Chain Sequence>
MEPGGARLRLQRTEGLGGERERQPCGDGNTETHRAPDLVQWTRHMEAVKAQLLEQAQGQLRELLDRAMREAIQSYPSQDKPLPPPPPGSLSRTQEPSLGKQKVFIIRKSLLDELMEVQHFRTIYHMFIAGLCVFIISTLAIDFIDEGRLLLEFDLLIFSFGQLPLALVTWVPMFLSTLLAPYQALRLWARGTWTQATGLGCALLAAHAVVLCALPVHVAVEHQLPPASRCVLVFEQVRFLMKSYSFLREAVPGTLRARRGEGIQAPSFSSYLYFLFCPTLIYRETYPRTPYVRWNYVAKNFAQALGCVLYACFILGRLCVPVFANMSREPFSTRALVLSILHATLPGIFMLLLIFFAFLHCWLNAFAEMLRFGDRMFYRDWWNSTSFSNYYRTWNVVVHDWLYSYVYQDGLRLLGARARGVAMLGVFLVSAVAHEYIFCFVLGFFYPVMLILFLVIGGMLNFMMHDQRTGPAWNVLMWTMLFLGQGIQVSLYCQEWYARRHCPLPQATFWGLVTPRSWSCHT

> <PDB ID(s) of Target Chain>


> <UniProt (SwissProt) Recommended Name of Target Chain>
Sterol O-acyltransferase 2

> <UniProt (SwissProt) Entry Name of Target Chain>
ACAT-2

> <UniProt (SwissProt) Primary ID of Target Chain>
O75908

> <UniProt (SwissProt) Secondary ID(s) of Target Chain>
F5H7W4 I6L9H9 Q4VB99 Q4VBA1 Q96TD4 Q9UNR2

> <UniProt (SwissProt) Alternative ID(s) of Target Chain>


> <UniProt (TrEMBL) Submitted Name of Target Chain>


> <UniProt (TrEMBL) Entry Name of Target Chain>


> <UniProt (TrEMBL) Primary ID of Target Chain>


> <UniProt (TrEMBL) Secondary ID(s) of Target Chain>


> <UniProt (TrEMBL) Alternative ID(s) of Target Chain>


$$$$

  Mrv0541 11241417102D          

 48 53  0  0  0  0            999 V2000
   22.7632  -18.2297    0.0000 C   0  0  0  0  0  0  0  0  0  0  0  0
   22.3549  -17.5172    0.0000 C   0  0  2  0  0  0  0  0  0  0  0  0
   21.9420  -18.2271    0.0000 C   0  0  0  0  0  0  0  0  0  0  0  0
   21.6466  -16.2838    0.0000 C   0  0  0  0  0  0  0  0  0  0  0  0
   21.6466  -17.1089    0.0000 C   0  0  2  0  0  0  0  0  0  0  0  0
   22.3585  -15.8672    0.0000 C   0  0  0  0  0  0  0  0  0  0  0  0
   23.0706  -16.2838    0.0000 C   0  0  1  0  0  0  0  0  0  0  0  0
   23.0717  -17.1089    0.0000 C   0  0  1  0  0  0  0  0  0  0  0  0
   23.7827  -17.5182    0.0000 C   0  0  0  0  0  0  0  0  0  0  0  0
   24.4973  -17.1070    0.0000 C   0  0  1  0  0  0  0  0  0  0  0  0
   23.7806  -15.8682    0.0000 C   0  0  2  0  0  0  0  0  0  0  0  0
   24.4958  -16.2867    0.0000 C   0  0  2  0  0  0  0  0  0  0  0  0
   25.2119  -15.8788    0.0000 O   0  0  0  0  0  0  0  0  0  0  0  0
   23.7814  -15.0417    0.0000 C   0  0  2  0  0  0  0  0  0  0  0  0
   24.5038  -14.6321    0.0000 C   0  0  0  0  0  0  0  0  0  0  0  0
   25.2219  -15.0544    0.0000 C   0  0  0  0  0  0  0  0  0  0  0  0
   25.9426  -14.6459    0.0000 C   0  0  0  0  0  0  0  0  0  0  0  0
   25.9514  -13.8135    0.0000 C   0  0  0  0  0  0  0  0  0  0  0  0
   25.2333  -13.3913    0.0000 O   0  0  0  0  0  0  0  0  0  0  0  0
   24.5063  -13.8015    0.0000 C   0  0  0  0  0  0  0  0  0  0  0  0
   26.6652  -13.4092    0.0000 C   0  0  0  0  0  0  0  0  0  0  0  0
   27.3762  -13.8300    0.0000 C   0  0  0  0  0  0  0  0  0  0  0  0
   28.0940  -13.4249    0.0000 N   0  0  0  0  0  0  0  0  0  0  0  0
   28.1021  -12.5990    0.0000 C   0  0  0  0  0  0  0  0  0  0  0  0
   27.3864  -12.1800    0.0000 C   0  0  0  0  0  0  0  0  0  0  0  0
   26.6715  -12.5876    0.0000 C   0  0  0  0  0  0  0  0  0  0  0  0
   23.7946  -13.3843    0.0000 O   0  0  0  0  0  0  0  0  0  0  0  0
   25.2118  -17.5195    0.0000 O   0  0  0  0  0  0  0  0  0  0  0  0
   25.9263  -17.1068    0.0000 C   0  0  0  0  0  0  0  0  0  0  0  0
   26.6408  -17.5193    0.0000 C   0  0  0  0  0  0  0  0  0  0  0  0
   25.9262  -16.2818    0.0000 O   0  0  0  0  0  0  0  0  0  0  0  0
   20.9326  -17.5224    0.0000 O   0  0  0  0  0  0  0  0  0  0  0  0
   20.2175  -17.1110    0.0000 C   0  0  0  0  0  0  0  0  0  0  0  0
   19.5036  -17.5245    0.0000 C   0  0  0  0  0  0  0  0  0  0  0  0
   20.2164  -16.2860    0.0000 O   0  0  0  0  0  0  0  0  0  0  0  0
   22.3484  -18.9429    0.0000 O   0  0  0  0  0  0  0  0  0  0  0  0
   22.7586  -19.6587    0.0000 C   0  0  0  0  0  0  0  0  0  0  0  0
   22.3439  -20.3719    0.0000 C   0  0  0  0  0  0  0  0  0  0  0  0
   23.5836  -19.6613    0.0000 O   0  0  0  0  0  0  0  0  0  0  0  0
   23.0688  -14.6261    0.0000 O   0  0  0  0  0  0  0  0  0  0  0  0
   23.0632  -15.4588    0.0000 C   0  0  0  0  0  0  0  0  0  0  0  0
   24.4882  -15.4588    0.0000 C   0  0  0  0  0  0  0  0  0  0  0  0
   26.6356  -18.3433    0.0000 C   0  0  0  0  0  0  0  0  0  0  0  0
   27.3494  -18.7557    0.0000 C   0  0  0  0  0  0  0  0  0  0  0  0
   28.0648  -18.3430    0.0000 C   0  0  0  0  0  0  0  0  0  0  0  0
   28.0621  -17.5137    0.0000 C   0  0  0  0  0  0  0  0  0  0  0  0
   27.3477  -17.1051    0.0000 C   0  0  0  0  0  0  0  0  0  0  0  0
   28.7750  -17.0986    0.0000 F   0  0  0  0  0  0  0  0  0  0  0  0
  2  1  1  6  0  0  0
  2  3  1  1  0  0  0
  5  4  1  0  0  0  0
  4  6  1  0  0  0  0
  2  5  1  0  0  0  0
  8  2  1  0  0  0  0
  7  6  1  0  0  0  0
  7  8  1  0  0  0  0
 11  7  1  1  0  0  0
  8  9  1  1  0  0  0
 10  9  1  0  0  0  0
 12 10  1  0  0  0  0
 11 12  1  0  0  0  0
 11 14  1  0  0  0  0
 12 13  1  0  0  0  0
 13 16  1  0  0  0  0
 14 15  1  0  0  0  0
 15 16  2  0  0  0  0
 15 20  1  0  0  0  0
 16 17  1  0  0  0  0
 17 18  2  0  0  0  0
 18 19  1  0  0  0  0
 19 20  1  0  0  0  0
 21 22  2  0  0  0  0
 22 23  1  0  0  0  0
 23 24  2  0  0  0  0
 24 25  1  0  0  0  0
 25 26  2  0  0  0  0
 26 21  1  0  0  0  0
 18 21  1  0  0  0  0
 20 27  2  0  0  0  0
 10 28  1  1  0  0  0
 28 29  1  0  0  0  0
 29 30  1  0  0  0  0
 29 31  2  0  0  0  0
  5 32  1  1  0  0  0
 32 33  1  0  0  0  0
 33 34  1  0  0  0  0
 33 35  2  0  0  0  0
  1 36  1  0  0  0  0
 36 37  1  0  0  0  0
 37 38  1  0  0  0  0
 37 39  2  0  0  0  0
 14 40  1  1  0  0  0
  7 41  1  1  0  0  0
 12 42  1  1  0  0  0
 30 43  2  0  0  0  0
 43 44  1  0  0  0  0
 44 45  2  0  0  0  0
 45 46  1  0  0  0  0
 46 47  2  0  0  0  0
 47 30  1  0  0  0  0
 46 48  1  0  0  0  0
M  END
> <From>
www.bindingDB.org

> <BindingDB Reactant_set_id>
51053293

> <Ligand InChI>
InChI=1S/C36H38FNO10/c1-19(39)44-18-35(4)26-16-28(47-32(42)21-8-6-10-23(37)14-21)36(5)31(34(26,3)12-11-27(35)45-20(2)40)30(41)29-25(48-36)15-24(46-33(29)43)22-9-7-13-38-17-22/h6-10,13-15,17,26-28,30-31,41H,11-12,16,18H2,1-5H3/t26-,27+,28+,30+,31-,34+,35+,36-/m1/s1

> <Ligand InChI Key>
ZUQDNOHGPAJTCX-HRSZXCBJSA-N

> <BindingDB MonomerID>
50429603

> <BindingDB Ligand Name>
CHEMBL2334540

> <Target Name>
Sterol O-acyltransferase 2

> <Target Source Organism According to Curator or DataSource>


> <Ki (nM)>


> <IC50 (nM)>
 0.900000

> <Kd (nM)>


> <EC50 (nM)>


> <kon (M-1-s-1)>


> <koff (s-1)>


> <pH>


> <Temp (C)>


> <Curation/DataSource>
ChEMBL

> <Article DOI>
10.1016/j.bmcl.2012.12.099

> <BindingDB Entry DOI>
10.7270/Q2P270HW

> <PMID>
23369538

> <PubChem AID>


> <Patent Number>


> <Authors>
Ohtawa, M; Yamazaki, H; Ohte, S; Matsuda, D; Ohshiro, T; Rudel, LL; Omura, S; Tomoda, H; Nagamitsu, T

> <Institution>
Kitasato University

> <Link to Ligand in BindingDB>
http://www.bindingdb.org/bind/chemsearch/marvin/MolStructure.jsp?monomerid=50429603

> <Link to Target in BindingDB>
http://www.bindingdb.org/jsp/dbsearch/PrimarySearch_ki.jsp?energyterm=kJ/mole&tag=pol&polymerid=7773&target=Sterol+O-acyltransferase+2&column=ki&startPg=0&Increment=50&submit=Search

> <Link to Ligand-Target Pair in BindingDB>
http://www.bindingdb.org/jsp/dbsearch/PrimarySearch_ki.jsp?energyterm=kJ/mole&tag=r21&monomerid=50429603&enzyme=Sterol+O-acyltransferase+2&column=ki&startPg=0&Increment=50&submit=Search

> <Ligand HET ID in PDB>


> <PDB ID(s) for Ligand-Target Complex>


> <PubChem CID>
71560793

> <PubChem SID>
164158478

> <ChEBI ID of Ligand>


> <ChEMBL ID of Ligand>
CHEMBL2334540

> <DrugBank ID of Ligand>


> <IUPHAR_GRAC ID of Ligand>


> <KEGG ID of Ligand>


> <ZINC ID of Ligand>
ZINC95590104

> <Number of Protein Chains in Target (>1 implies a multichain complex)>
1

> <BindingDB Target Chain Sequence>
MEPGGARLRLQRTEGLGGERERQPCGDGNTETHRAPDLVQWTRHMEAVKAQLLEQAQGQLRELLDRAMREAIQSYPSQDKPLPPPPPGSLSRTQEPSLGKQKVFIIRKSLLDELMEVQHFRTIYHMFIAGLCVFIISTLAIDFIDEGRLLLEFDLLIFSFGQLPLALVTWVPMFLSTLLAPYQALRLWARGTWTQATGLGCALLAAHAVVLCALPVHVAVEHQLPPASRCVLVFEQVRFLMKSYSFLREAVPGTLRARRGEGIQAPSFSSYLYFLFCPTLIYRETYPRTPYVRWNYVAKNFAQALGCVLYACFILGRLCVPVFANMSREPFSTRALVLSILHATLPGIFMLLLIFFAFLHCWLNAFAEMLRFGDRMFYRDWWNSTSFSNYYRTWNVVVHDWLYSYVYQDGLRLLGARARGVAMLGVFLVSAVAHEYIFCFVLGFFYPVMLILFLVIGGMLNFMMHDQRTGPAWNVLMWTMLFLGQGIQVSLYCQEWYARRHCPLPQATFWGLVTPRSWSCHT

> <PDB ID(s) of Target Chain>


> <UniProt (SwissProt) Recommended Name of Target Chain>
Sterol O-acyltransferase 2

> <UniProt (SwissProt) Entry Name of Target Chain>
ACAT-2

> <UniProt (SwissProt) Primary ID of Target Chain>
O75908

> <UniProt (SwissProt) Secondary ID(s) of Target Chain>
F5H7W4 I6L9H9 Q4VB99 Q4VBA1 Q96TD4 Q9UNR2

> <UniProt (SwissProt) Alternative ID(s) of Target Chain>


> <UniProt (TrEMBL) Submitted Name of Target Chain>


> <UniProt (TrEMBL) Entry Name of Target Chain>


> <UniProt (TrEMBL) Primary ID of Target Chain>


> <UniProt (TrEMBL) Secondary ID(s) of Target Chain>


> <UniProt (TrEMBL) Alternative ID(s) of Target Chain>


$$$$

  Mrv0541 11241417102D          

 48 53  0  0  0  0            999 V2000
    1.0416  -29.7622    0.0000 C   0  0  0  0  0  0  0  0  0  0  0  0
    0.6333  -29.0497    0.0000 C   0  0  2  0  0  0  0  0  0  0  0  0
    0.2205  -29.7596    0.0000 C   0  0  0  0  0  0  0  0  0  0  0  0
   -0.0750  -27.8164    0.0000 C   0  0  0  0  0  0  0  0  0  0  0  0
   -0.0750  -28.6414    0.0000 C   0  0  2  0  0  0  0  0  0  0  0  0
    0.6370  -27.3998    0.0000 C   0  0  0  0  0  0  0  0  0  0  0  0
    1.3491  -27.8164    0.0000 C   0  0  1  0  0  0  0  0  0  0  0  0
    1.3501  -28.6414    0.0000 C   0  0  1  0  0  0  0  0  0  0  0  0
    2.0611  -29.0507    0.0000 C   0  0  0  0  0  0  0  0  0  0  0  0
    2.7756  -28.6396    0.0000 C   0  0  1  0  0  0  0  0  0  0  0  0
    2.0590  -27.4007    0.0000 C   0  0  2  0  0  0  0  0  0  0  0  0
    2.7742  -27.8192    0.0000 C   0  0  2  0  0  0  0  0  0  0  0  0
    3.4903  -27.4113    0.0000 O   0  0  0  0  0  0  0  0  0  0  0  0
    2.0599  -26.5743    0.0000 C   0  0  2  0  0  0  0  0  0  0  0  0
    2.7821  -26.1648    0.0000 C   0  0  0  0  0  0  0  0  0  0  0  0
    3.5002  -26.5870    0.0000 C   0  0  0  0  0  0  0  0  0  0  0  0
    4.2209  -26.1784    0.0000 C   0  0  0  0  0  0  0  0  0  0  0  0
    4.2298  -25.3461    0.0000 C   0  0  0  0  0  0  0  0  0  0  0  0
    3.5117  -24.9239    0.0000 O   0  0  0  0  0  0  0  0  0  0  0  0
    2.7847  -25.3341    0.0000 C   0  0  0  0  0  0  0  0  0  0  0  0
    4.9435  -24.9418    0.0000 C   0  0  0  0  0  0  0  0  0  0  0  0
    5.6545  -25.3627    0.0000 C   0  0  0  0  0  0  0  0  0  0  0  0
    6.3721  -24.9576    0.0000 N   0  0  0  0  0  0  0  0  0  0  0  0
    6.3803  -24.1317    0.0000 C   0  0  0  0  0  0  0  0  0  0  0  0
    5.6647  -23.7127    0.0000 C   0  0  0  0  0  0  0  0  0  0  0  0
    4.9498  -24.1202    0.0000 C   0  0  0  0  0  0  0  0  0  0  0  0
    2.0729  -24.9170    0.0000 O   0  0  0  0  0  0  0  0  0  0  0  0
    3.4902  -29.0520    0.0000 O   0  0  0  0  0  0  0  0  0  0  0  0
    4.2046  -28.6394    0.0000 C   0  0  0  0  0  0  0  0  0  0  0  0
    4.9191  -29.0518    0.0000 C   0  0  0  0  0  0  0  0  0  0  0  0
    4.2045  -27.8144    0.0000 O   0  0  0  0  0  0  0  0  0  0  0  0
   -0.7944  -29.0549    0.0000 O   0  0  0  0  0  0  0  0  0  0  0  0
   -1.5044  -28.6434    0.0000 C   0  0  0  0  0  0  0  0  0  0  0  0
   -2.2238  -29.0569    0.0000 C   0  0  0  0  0  0  0  0  0  0  0  0
   -1.5115  -27.8184    0.0000 O   0  0  0  0  0  0  0  0  0  0  0  0
    0.6269  -30.4753    0.0000 O   0  0  0  0  0  0  0  0  0  0  0  0
    1.0371  -31.1911    0.0000 C   0  0  0  0  0  0  0  0  0  0  0  0
    0.6223  -31.9042    0.0000 C   0  0  0  0  0  0  0  0  0  0  0  0
    1.8621  -31.1937    0.0000 O   0  0  0  0  0  0  0  0  0  0  0  0
    1.3472  -26.1587    0.0000 O   0  0  0  0  0  0  0  0  0  0  0  0
    1.3417  -26.9914    0.0000 C   0  0  0  0  0  0  0  0  0  0  0  0
    2.7667  -26.9914    0.0000 C   0  0  0  0  0  0  0  0  0  0  0  0
    4.9140  -29.8758    0.0000 C   0  0  0  0  0  0  0  0  0  0  0  0
    5.6276  -30.2881    0.0000 C   0  0  0  0  0  0  0  0  0  0  0  0
    6.3431  -29.8755    0.0000 C   0  0  0  0  0  0  0  0  0  0  0  0
    6.3402  -29.0462    0.0000 C   0  0  0  0  0  0  0  0  0  0  0  0
    5.6260  -28.6376    0.0000 C   0  0  0  0  0  0  0  0  0  0  0  0
    7.0581  -30.2868    0.0000 Cl  0  0  0  0  0  0  0  0  0  0  0  0
  2  1  1  6  0  0  0
  2  3  1  1  0  0  0
  5  4  1  0  0  0  0
  4  6  1  0  0  0  0
  2  5  1  0  0  0  0
  8  2  1  0  0  0  0
  7  6  1  0  0  0  0
  7  8  1  0  0  0  0
 11  7  1  1  0  0  0
  8  9  1  1  0  0  0
 10  9  1  0  0  0  0
 12 10  1  0  0  0  0
 11 12  1  0  0  0  0
 11 14  1  0  0  0  0
 12 13  1  0  0  0  0
 13 16  1  0  0  0  0
 14 15  1  0  0  0  0
 15 16  2  0  0  0  0
 15 20  1  0  0  0  0
 16 17  1  0  0  0  0
 17 18  2  0  0  0  0
 18 19  1  0  0  0  0
 19 20  1  0  0  0  0
 21 22  2  0  0  0  0
 22 23  1  0  0  0  0
 23 24  2  0  0  0  0
 24 25  1  0  0  0  0
 25 26  2  0  0  0  0
 26 21  1  0  0  0  0
 18 21  1  0  0  0  0
 20 27  2  0  0  0  0
 10 28  1  1  0  0  0
 28 29  1  0  0  0  0
 29 30  1  0  0  0  0
 29 31  2  0  0  0  0
  5 32  1  1  0  0  0
 32 33  1  0  0  0  0
 33 34  1  0  0  0  0
 33 35  2  0  0  0  0
  1 36  1  0  0  0  0
 36 37  1  0  0  0  0
 37 38  1  0  0  0  0
 37 39  2  0  0  0  0
 14 40  1  1  0  0  0
  7 41  1  1  0  0  0
 12 42  1  1  0  0  0
 30 43  2  0  0  0  0
 43 44  1  0  0  0  0
 44 45  2  0  0  0  0
 45 46  1  0  0  0  0
 46 47  2  0  0  0  0
 47 30  1  0  0  0  0
 45 48  1  0  0  0  0
M  END
> <From>
www.bindingDB.org

> <BindingDB Reactant_set_id>
51053292

> <Ligand InChI>
InChI=1S/C36H38ClNO10/c1-19(39)44-18-35(4)26-16-28(47-32(42)21-8-10-23(37)11-9-21)36(5)31(34(26,3)13-12-27(35)45-20(2)40)30(41)29-25(48-36)15-24(46-33(29)43)22-7-6-14-38-17-22/h6-11,14-15,17,26-28,30-31,41H,12-13,16,18H2,1-5H3/t26-,27+,28+,30+,31-,34+,35+,36-/m1/s1

> <Ligand InChI Key>
JJTKTRDEEWKAQK-HRSZXCBJSA-N

> <BindingDB MonomerID>
50429602

> <BindingDB Ligand Name>
CHEMBL2334541

> <Target Name>
Sterol O-acyltransferase 2

> <Target Source Organism According to Curator or DataSource>


> <Ki (nM)>


> <IC50 (nM)>
 1.000000

> <Kd (nM)>


> <EC50 (nM)>


> <kon (M-1-s-1)>


> <koff (s-1)>


> <pH>


> <Temp (C)>


> <Curation/DataSource>
ChEMBL

> <Article DOI>
10.1016/j.bmcl.2012.12.099

> <BindingDB Entry DOI>
10.7270/Q2P270HW

> <PMID>
23369538

> <PubChem AID>


> <Patent Number>


> <Authors>
Ohtawa, M; Yamazaki, H; Ohte, S; Matsuda, D; Ohshiro, T; Rudel, LL; Omura, S; Tomoda, H; Nagamitsu, T

> <Institution>
Kitasato University

> <Link to Ligand in BindingDB>
http://www.bindingdb.org/bind/chemsearch/marvin/MolStructure.jsp?monomerid=50429602

> <Link to Target in BindingDB>
http://www.bindingdb.org/jsp/dbsearch/PrimarySearch_ki.jsp?energyterm=kJ/mole&tag=pol&polymerid=7773&target=Sterol+O-acyltransferase+2&column=ki&startPg=0&Increment=50&submit=Search

> <Link to Ligand-Target Pair in BindingDB>
http://www.bindingdb.org/jsp/dbsearch/PrimarySearch_ki.jsp?energyterm=kJ/mole&tag=r21&monomerid=50429602&enzyme=Sterol+O-acyltransferase+2&column=ki&startPg=0&Increment=50&submit=Search

> <Ligand HET ID in PDB>


> <PDB ID(s) for Ligand-Target Complex>


> <PubChem CID>
71560794

> <PubChem SID>
164158477

> <ChEBI ID of Ligand>


> <ChEMBL ID of Ligand>
CHEMBL2334541

> <DrugBank ID of Ligand>


> <IUPHAR_GRAC ID of Ligand>


> <KEGG ID of Ligand>


> <ZINC ID of Ligand>
ZINC95586226

> <Number of Protein Chains in Target (>1 implies a multichain complex)>
1

> <BindingDB Target Chain Sequence>
MEPGGARLRLQRTEGLGGERERQPCGDGNTETHRAPDLVQWTRHMEAVKAQLLEQAQGQLRELLDRAMREAIQSYPSQDKPLPPPPPGSLSRTQEPSLGKQKVFIIRKSLLDELMEVQHFRTIYHMFIAGLCVFIISTLAIDFIDEGRLLLEFDLLIFSFGQLPLALVTWVPMFLSTLLAPYQALRLWARGTWTQATGLGCALLAAHAVVLCALPVHVAVEHQLPPASRCVLVFEQVRFLMKSYSFLREAVPGTLRARRGEGIQAPSFSSYLYFLFCPTLIYRETYPRTPYVRWNYVAKNFAQALGCVLYACFILGRLCVPVFANMSREPFSTRALVLSILHATLPGIFMLLLIFFAFLHCWLNAFAEMLRFGDRMFYRDWWNSTSFSNYYRTWNVVVHDWLYSYVYQDGLRLLGARARGVAMLGVFLVSAVAHEYIFCFVLGFFYPVMLILFLVIGGMLNFMMHDQRTGPAWNVLMWTMLFLGQGIQVSLYCQEWYARRHCPLPQATFWGLVTPRSWSCHT

> <PDB ID(s) of Target Chain>


> <UniProt (SwissProt) Recommended Name of Target Chain>
Sterol O-acyltransferase 2

> <UniProt (SwissProt) Entry Name of Target Chain>
ACAT-2

> <UniProt (SwissProt) Primary ID of Target Chain>
O75908

> <UniProt (SwissProt) Secondary ID(s) of Target Chain>
F5H7W4 I6L9H9 Q4VB99 Q4VBA1 Q96TD4 Q9UNR2

> <UniProt (SwissProt) Alternative ID(s) of Target Chain>


> <UniProt (TrEMBL) Submitted Name of Target Chain>


> <UniProt (TrEMBL) Entry Name of Target Chain>


> <UniProt (TrEMBL) Primary ID of Target Chain>


> <UniProt (TrEMBL) Secondary ID(s) of Target Chain>


> <UniProt (TrEMBL) Alternative ID(s) of Target Chain>


$$$$

  Mrv0541 11241417102D          

 49 54  0  0  0  0            999 V2000
   10.8207  -29.7580    0.0000 C   0  0  0  0  0  0  0  0  0  0  0  0
   10.4123  -29.0455    0.0000 C   0  0  2  0  0  0  0  0  0  0  0  0
    9.9995  -29.7554    0.0000 C   0  0  0  0  0  0  0  0  0  0  0  0
    9.7040  -27.8122    0.0000 C   0  0  0  0  0  0  0  0  0  0  0  0
    9.7040  -28.6371    0.0000 C   0  0  2  0  0  0  0  0  0  0  0  0
   10.4161  -27.3955    0.0000 C   0  0  0  0  0  0  0  0  0  0  0  0
   11.1281  -27.8122    0.0000 C   0  0  1  0  0  0  0  0  0  0  0  0
   11.1291  -28.6371    0.0000 C   0  0  1  0  0  0  0  0  0  0  0  0
   11.8401  -29.0465    0.0000 C   0  0  0  0  0  0  0  0  0  0  0  0
   12.5547  -28.6353    0.0000 C   0  0  1  0  0  0  0  0  0  0  0  0
   11.8380  -27.3965    0.0000 C   0  0  2  0  0  0  0  0  0  0  0  0
   12.5533  -27.8149    0.0000 C   0  0  2  0  0  0  0  0  0  0  0  0
   13.2693  -27.4071    0.0000 O   0  0  0  0  0  0  0  0  0  0  0  0
   11.8389  -26.5701    0.0000 C   0  0  2  0  0  0  0  0  0  0  0  0
   12.5611  -26.1606    0.0000 C   0  0  0  0  0  0  0  0  0  0  0  0
   13.2792  -26.5828    0.0000 C   0  0  0  0  0  0  0  0  0  0  0  0
   13.9999  -26.1742    0.0000 C   0  0  0  0  0  0  0  0  0  0  0  0
   14.0088  -25.3419    0.0000 C   0  0  0  0  0  0  0  0  0  0  0  0
   13.2907  -24.9198    0.0000 O   0  0  0  0  0  0  0  0  0  0  0  0
   12.5638  -25.3299    0.0000 C   0  0  0  0  0  0  0  0  0  0  0  0
   14.7226  -24.9376    0.0000 C   0  0  0  0  0  0  0  0  0  0  0  0
   15.4335  -25.3585    0.0000 C   0  0  0  0  0  0  0  0  0  0  0  0
   16.1512  -24.9533    0.0000 N   0  0  0  0  0  0  0  0  0  0  0  0
   16.1594  -24.1275    0.0000 C   0  0  0  0  0  0  0  0  0  0  0  0
   15.4437  -23.7085    0.0000 C   0  0  0  0  0  0  0  0  0  0  0  0
   14.7288  -24.1161    0.0000 C   0  0  0  0  0  0  0  0  0  0  0  0
   11.8520  -24.9128    0.0000 O   0  0  0  0  0  0  0  0  0  0  0  0
   13.2692  -29.0477    0.0000 O   0  0  0  0  0  0  0  0  0  0  0  0
   13.9836  -28.6351    0.0000 C   0  0  0  0  0  0  0  0  0  0  0  0
   14.6981  -29.0476    0.0000 C   0  0  0  0  0  0  0  0  0  0  0  0
   13.9835  -27.8102    0.0000 O   0  0  0  0  0  0  0  0  0  0  0  0
    8.9902  -29.0507    0.0000 O   0  0  0  0  0  0  0  0  0  0  0  0
    8.2751  -28.6392    0.0000 C   0  0  0  0  0  0  0  0  0  0  0  0
    7.5613  -29.0527    0.0000 C   0  0  0  0  0  0  0  0  0  0  0  0
    8.2739  -27.8142    0.0000 O   0  0  0  0  0  0  0  0  0  0  0  0
   10.4060  -30.4712    0.0000 O   0  0  0  0  0  0  0  0  0  0  0  0
   10.8162  -31.1869    0.0000 C   0  0  0  0  0  0  0  0  0  0  0  0
   10.4013  -31.9001    0.0000 C   0  0  0  0  0  0  0  0  0  0  0  0
   11.6411  -31.1895    0.0000 O   0  0  0  0  0  0  0  0  0  0  0  0
   11.1263  -26.1545    0.0000 O   0  0  0  0  0  0  0  0  0  0  0  0
   11.1207  -26.9872    0.0000 C   0  0  0  0  0  0  0  0  0  0  0  0
   12.5457  -26.9872    0.0000 C   0  0  0  0  0  0  0  0  0  0  0  0
   14.6930  -29.8716    0.0000 C   0  0  0  0  0  0  0  0  0  0  0  0
   15.4066  -30.2839    0.0000 C   0  0  0  0  0  0  0  0  0  0  0  0
   16.1221  -29.8712    0.0000 C   0  0  0  0  0  0  0  0  0  0  0  0
   16.1193  -29.0419    0.0000 C   0  0  0  0  0  0  0  0  0  0  0  0
   15.4050  -28.6334    0.0000 C   0  0  0  0  0  0  0  0  0  0  0  0
   16.8372  -30.2827    0.0000 C   0  0  0  0  0  0  0  0  0  0  0  0
   16.8384  -31.1077    0.0000 C   0  0  0  0  0  0  0  0  0  0  0  0
  2  1  1  6  0  0  0
  2  3  1  1  0  0  0
  5  4  1  0  0  0  0
  4  6  1  0  0  0  0
  2  5  1  0  0  0  0
  8  2  1  0  0  0  0
  7  6  1  0  0  0  0
  7  8  1  0  0  0  0
 11  7  1  1  0  0  0
  8  9  1  1  0  0  0
 10  9  1  0  0  0  0
 12 10  1  0  0  0  0
 11 12  1  0  0  0  0
 11 14  1  0  0  0  0
 12 13  1  0  0  0  0
 13 16  1  0  0  0  0
 14 15  1  0  0  0  0
 15 16  2  0  0  0  0
 15 20  1  0  0  0  0
 16 17  1  0  0  0  0
 17 18  2  0  0  0  0
 18 19  1  0  0  0  0
 19 20  1  0  0  0  0
 21 22  2  0  0  0  0
 22 23  1  0  0  0  0
 23 24  2  0  0  0  0
 24 25  1  0  0  0  0
 25 26  2  0  0  0  0
 26 21  1  0  0  0  0
 18 21  1  0  0  0  0
 20 27  2  0  0  0  0
 10 28  1  1  0  0  0
 28 29  1  0  0  0  0
 29 30  1  0  0  0  0
 29 31  2  0  0  0  0
  5 32  1  1  0  0  0
 32 33  1  0  0  0  0
 33 34  1  0  0  0  0
 33 35  2  0  0  0  0
  1 36  1  0  0  0  0
 36 37  1  0  0  0  0
 37 38  1  0  0  0  0
 37 39  2  0  0  0  0
 14 40  1  1  0  0  0
  7 41  1  1  0  0  0
 12 42  1  1  0  0  0
 30 43  2  0  0  0  0
 43 44  1  0  0  0  0
 44 45  2  0  0  0  0
 45 46  1  0  0  0  0
 46 47  2  0  0  0  0
 47 30  1  0  0  0  0
 45 48  1  0  0  0  0
 48 49  1  0  0  0  0
M  END
> <From>
www.bindingDB.org

> <BindingDB Reactant_set_id>
51053291

> <Ligand InChI>
InChI=1S/C38H43NO10/c1-7-23-10-12-24(13-11-23)34(43)48-30-18-28-36(4,15-14-29(46-22(3)41)37(28,5)20-45-21(2)40)33-32(42)31-27(49-38(30,33)6)17-26(47-35(31)44)25-9-8-16-39-19-25/h8-13,16-17,19,28-30,32-33,42H,7,14-15,18,20H2,1-6H3/t28-,29+,30+,32+,33-,36+,37+,38-/m1/s1

> <Ligand InChI Key>
MPTXUTHHWCOIOC-DYBHYMMPSA-N

> <BindingDB MonomerID>
50429601

> <BindingDB Ligand Name>
CHEMBL2333808

> <Target Name>
Sterol O-acyltransferase 2

> <Target Source Organism According to Curator or DataSource>


> <Ki (nM)>


> <IC50 (nM)>
 1.000000

> <Kd (nM)>


> <EC50 (nM)>


> <kon (M-1-s-1)>


> <koff (s-1)>


> <pH>


> <Temp (C)>


> <Curation/DataSource>
ChEMBL

> <Article DOI>
10.1016/j.bmcl.2012.12.099

> <BindingDB Entry DOI>
10.7270/Q2P270HW

> <PMID>
23369538

> <PubChem AID>


> <Patent Number>


> <Authors>
Ohtawa, M; Yamazaki, H; Ohte, S; Matsuda, D; Ohshiro, T; Rudel, LL; Omura, S; Tomoda, H; Nagamitsu, T

> <Institution>
Kitasato University

> <Link to Ligand in BindingDB>
http://www.bindingdb.org/bind/chemsearch/marvin/MolStructure.jsp?monomerid=50429601

> <Link to Target in BindingDB>
http://www.bindingdb.org/jsp/dbsearch/PrimarySearch_ki.jsp?energyterm=kJ/mole&tag=pol&polymerid=7773&target=Sterol+O-acyltransferase+2&column=ki&startPg=0&Increment=50&submit=Search

> <Link to Ligand-Target Pair in BindingDB>
http://www.bindingdb.org/jsp/dbsearch/PrimarySearch_ki.jsp?energyterm=kJ/mole&tag=r21&monomerid=50429601&enzyme=Sterol+O-acyltransferase+2&column=ki&startPg=0&Increment=50&submit=Search

> <Ligand HET ID in PDB>


> <PDB ID(s) for Ligand-Target Complex>


> <PubChem CID>
71560795

> <PubChem SID>
164158476

> <ChEBI ID of Ligand>


> <ChEMBL ID of Ligand>
CHEMBL2333808

> <DrugBank ID of Ligand>


> <IUPHAR_GRAC ID of Ligand>


> <KEGG ID of Ligand>


> <ZINC ID of Ligand>
ZINC95586527

> <Number of Protein Chains in Target (>1 implies a multichain complex)>
1

> <BindingDB Target Chain Sequence>
MEPGGARLRLQRTEGLGGERERQPCGDGNTETHRAPDLVQWTRHMEAVKAQLLEQAQGQLRELLDRAMREAIQSYPSQDKPLPPPPPGSLSRTQEPSLGKQKVFIIRKSLLDELMEVQHFRTIYHMFIAGLCVFIISTLAIDFIDEGRLLLEFDLLIFSFGQLPLALVTWVPMFLSTLLAPYQALRLWARGTWTQATGLGCALLAAHAVVLCALPVHVAVEHQLPPASRCVLVFEQVRFLMKSYSFLREAVPGTLRARRGEGIQAPSFSSYLYFLFCPTLIYRETYPRTPYVRWNYVAKNFAQALGCVLYACFILGRLCVPVFANMSREPFSTRALVLSILHATLPGIFMLLLIFFAFLHCWLNAFAEMLRFGDRMFYRDWWNSTSFSNYYRTWNVVVHDWLYSYVYQDGLRLLGARARGVAMLGVFLVSAVAHEYIFCFVLGFFYPVMLILFLVIGGMLNFMMHDQRTGPAWNVLMWTMLFLGQGIQVSLYCQEWYARRHCPLPQATFWGLVTPRSWSCHT

> <PDB ID(s) of Target Chain>


> <UniProt (SwissProt) Recommended Name of Target Chain>
Sterol O-acyltransferase 2

> <UniProt (SwissProt) Entry Name of Target Chain>
ACAT-2

> <UniProt (SwissProt) Primary ID of Target Chain>
O75908

> <UniProt (SwissProt) Secondary ID(s) of Target Chain>
F5H7W4 I6L9H9 Q4VB99 Q4VBA1 Q96TD4 Q9UNR2

> <UniProt (SwissProt) Alternative ID(s) of Target Chain>


> <UniProt (TrEMBL) Submitted Name of Target Chain>


> <UniProt (TrEMBL) Entry Name of Target Chain>


> <UniProt (TrEMBL) Primary ID of Target Chain>


> <UniProt (TrEMBL) Secondary ID(s) of Target Chain>


> <UniProt (TrEMBL) Alternative ID(s) of Target Chain>


$$$$

  Mrv0541 11241417102D          

 48 53  0  0  0  0            999 V2000
   21.0507  -29.6051    0.0000 C   0  0  0  0  0  0  0  0  0  0  0  0
   20.6423  -28.8925    0.0000 C   0  0  2  0  0  0  0  0  0  0  0  0
   20.2294  -29.6025    0.0000 C   0  0  0  0  0  0  0  0  0  0  0  0
   19.9340  -27.6591    0.0000 C   0  0  0  0  0  0  0  0  0  0  0  0
   19.9340  -28.4841    0.0000 C   0  0  2  0  0  0  0  0  0  0  0  0
   20.6459  -27.2425    0.0000 C   0  0  0  0  0  0  0  0  0  0  0  0
   21.3580  -27.6591    0.0000 C   0  0  1  0  0  0  0  0  0  0  0  0
   21.3591  -28.4841    0.0000 C   0  0  1  0  0  0  0  0  0  0  0  0
   22.0702  -28.8935    0.0000 C   0  0  0  0  0  0  0  0  0  0  0  0
   22.7847  -28.4823    0.0000 C   0  0  1  0  0  0  0  0  0  0  0  0
   22.0680  -27.2435    0.0000 C   0  0  2  0  0  0  0  0  0  0  0  0
   22.7832  -27.6619    0.0000 C   0  0  2  0  0  0  0  0  0  0  0  0
   23.4993  -27.2541    0.0000 O   0  0  0  0  0  0  0  0  0  0  0  0
   22.0688  -26.4170    0.0000 C   0  0  2  0  0  0  0  0  0  0  0  0
   22.7912  -26.0075    0.0000 C   0  0  0  0  0  0  0  0  0  0  0  0
   23.5093  -26.4297    0.0000 C   0  0  0  0  0  0  0  0  0  0  0  0
   24.2300  -26.0212    0.0000 C   0  0  0  0  0  0  0  0  0  0  0  0
   24.2388  -25.1888    0.0000 C   0  0  0  0  0  0  0  0  0  0  0  0
   23.5207  -24.7666    0.0000 O   0  0  0  0  0  0  0  0  0  0  0  0
   22.7937  -25.1767    0.0000 C   0  0  0  0  0  0  0  0  0  0  0  0
   24.9526  -24.7845    0.0000 C   0  0  0  0  0  0  0  0  0  0  0  0
   25.6636  -25.2054    0.0000 C   0  0  0  0  0  0  0  0  0  0  0  0
   26.3814  -24.8002    0.0000 N   0  0  0  0  0  0  0  0  0  0  0  0
   26.3895  -23.9743    0.0000 C   0  0  0  0  0  0  0  0  0  0  0  0
   25.6738  -23.5554    0.0000 C   0  0  0  0  0  0  0  0  0  0  0  0
   24.9590  -23.9629    0.0000 C   0  0  0  0  0  0  0  0  0  0  0  0
   22.0820  -24.7596    0.0000 O   0  0  0  0  0  0  0  0  0  0  0  0
   23.4992  -28.8947    0.0000 O   0  0  0  0  0  0  0  0  0  0  0  0
   24.2137  -28.4821    0.0000 C   0  0  0  0  0  0  0  0  0  0  0  0
   24.9283  -28.8945    0.0000 C   0  0  0  0  0  0  0  0  0  0  0  0
   24.2136  -27.6572    0.0000 O   0  0  0  0  0  0  0  0  0  0  0  0
   19.2200  -28.8978    0.0000 O   0  0  0  0  0  0  0  0  0  0  0  0
   18.5049  -28.4863    0.0000 C   0  0  0  0  0  0  0  0  0  0  0  0
   17.7910  -28.8998    0.0000 C   0  0  0  0  0  0  0  0  0  0  0  0
   18.5038  -27.6612    0.0000 O   0  0  0  0  0  0  0  0  0  0  0  0
   20.6358  -30.3183    0.0000 O   0  0  0  0  0  0  0  0  0  0  0  0
   21.0460  -31.0341    0.0000 C   0  0  0  0  0  0  0  0  0  0  0  0
   20.6313  -31.7472    0.0000 C   0  0  0  0  0  0  0  0  0  0  0  0
   21.8711  -31.0367    0.0000 O   0  0  0  0  0  0  0  0  0  0  0  0
   21.3562  -26.0014    0.0000 O   0  0  0  0  0  0  0  0  0  0  0  0
   21.3506  -26.8342    0.0000 C   0  0  0  0  0  0  0  0  0  0  0  0
   22.7756  -26.8342    0.0000 C   0  0  0  0  0  0  0  0  0  0  0  0
   24.9230  -29.7187    0.0000 C   0  0  0  0  0  0  0  0  0  0  0  0
   25.6368  -30.1310    0.0000 C   0  0  0  0  0  0  0  0  0  0  0  0
   26.3522  -29.7183    0.0000 C   0  0  0  0  0  0  0  0  0  0  0  0
   26.3495  -28.8890    0.0000 C   0  0  0  0  0  0  0  0  0  0  0  0
   25.6352  -28.4804    0.0000 C   0  0  0  0  0  0  0  0  0  0  0  0
   27.0625  -28.4739    0.0000 Br  0  0  0  0  0  0  0  0  0  0  0  0
  2  1  1  6  0  0  0
  2  3  1  1  0  0  0
  5  4  1  0  0  0  0
  4  6  1  0  0  0  0
  2  5  1  0  0  0  0
  8  2  1  0  0  0  0
  7  6  1  0  0  0  0
  7  8  1  0  0  0  0
 11  7  1  1  0  0  0
  8  9  1  1  0  0  0
 10  9  1  0  0  0  0
 12 10  1  0  0  0  0
 11 12  1  0  0  0  0
 11 14  1  0  0  0  0
 12 13  1  0  0  0  0
 13 16  1  0  0  0  0
 14 15  1  0  0  0  0
 15 16  2  0  0  0  0
 15 20  1  0  0  0  0
 16 17  1  0  0  0  0
 17 18  2  0  0  0  0
 18 19  1  0  0  0  0
 19 20  1  0  0  0  0
 21 22  2  0  0  0  0
 22 23  1  0  0  0  0
 23 24  2  0  0  0  0
 24 25  1  0  0  0  0
 25 26  2  0  0  0  0
 26 21  1  0  0  0  0
 18 21  1  0  0  0  0
 20 27  2  0  0  0  0
 10 28  1  1  0  0  0
 28 29  1  0  0  0  0
 29 30  1  0  0  0  0
 29 31  2  0  0  0  0
  5 32  1  1  0  0  0
 32 33  1  0  0  0  0
 33 34  1  0  0  0  0
 33 35  2  0  0  0  0
  1 36  1  0  0  0  0
 36 37  1  0  0  0  0
 37 38  1  0  0  0  0
 37 39  2  0  0  0  0
 14 40  1  1  0  0  0
  7 41  1  1  0  0  0
 12 42  1  1  0  0  0
 30 43  2  0  0  0  0
 43 44  1  0  0  0  0
 44 45  2  0  0  0  0
 45 46  1  0  0  0  0
 46 47  2  0  0  0  0
 47 30  1  0  0  0  0
 46 48  1  0  0  0  0
M  END
> <From>
www.bindingDB.org

> <BindingDB Reactant_set_id>
51053290

> <Ligand InChI>
InChI=1S/C36H38BrNO10/c1-19(39)44-18-35(4)26-16-28(47-32(42)21-8-6-10-23(37)14-21)36(5)31(34(26,3)12-11-27(35)45-20(2)40)30(41)29-25(48-36)15-24(46-33(29)43)22-9-7-13-38-17-22/h6-10,13-15,17,26-28,30-31,41H,11-12,16,18H2,1-5H3/t26-,27+,28+,30+,31-,34+,35+,36-/m1/s1

> <Ligand InChI Key>
LWYCDBRYJMVNSS-HRSZXCBJSA-N

> <BindingDB MonomerID>
50429600

> <BindingDB Ligand Name>
CHEMBL2333809

> <Target Name>
Sterol O-acyltransferase 2

> <Target Source Organism According to Curator or DataSource>


> <Ki (nM)>


> <IC50 (nM)>
 1.2

> <Kd (nM)>


> <EC50 (nM)>


> <kon (M-1-s-1)>


> <koff (s-1)>


> <pH>


> <Temp (C)>


> <Curation/DataSource>
ChEMBL

> <Article DOI>
10.1016/j.bmcl.2012.12.099

> <BindingDB Entry DOI>
10.7270/Q2P270HW

> <PMID>
23369538

> <PubChem AID>


> <Patent Number>


> <Authors>
Ohtawa, M; Yamazaki, H; Ohte, S; Matsuda, D; Ohshiro, T; Rudel, LL; Omura, S; Tomoda, H; Nagamitsu, T

> <Institution>
Kitasato University

> <Link to Ligand in BindingDB>
http://www.bindingdb.org/bind/chemsearch/marvin/MolStructure.jsp?monomerid=50429600

> <Link to Target in BindingDB>
http://www.bindingdb.org/jsp/dbsearch/PrimarySearch_ki.jsp?energyterm=kJ/mole&tag=pol&polymerid=7773&target=Sterol+O-acyltransferase+2&column=ki&startPg=0&Increment=50&submit=Search

> <Link to Ligand-Target Pair in BindingDB>
http://www.bindingdb.org/jsp/dbsearch/PrimarySearch_ki.jsp?energyterm=kJ/mole&tag=r21&monomerid=50429600&enzyme=Sterol+O-acyltransferase+2&column=ki&startPg=0&Increment=50&submit=Search

> <Ligand HET ID in PDB>


> <PDB ID(s) for Ligand-Target Complex>


> <PubChem CID>
71560796

> <PubChem SID>
164158475

> <ChEBI ID of Ligand>


> <ChEMBL ID of Ligand>
CHEMBL2333809

> <DrugBank ID of Ligand>


> <IUPHAR_GRAC ID of Ligand>


> <KEGG ID of Ligand>


> <ZINC ID of Ligand>
ZINC95592554

> <Number of Protein Chains in Target (>1 implies a multichain complex)>
1

> <BindingDB Target Chain Sequence>
MEPGGARLRLQRTEGLGGERERQPCGDGNTETHRAPDLVQWTRHMEAVKAQLLEQAQGQLRELLDRAMREAIQSYPSQDKPLPPPPPGSLSRTQEPSLGKQKVFIIRKSLLDELMEVQHFRTIYHMFIAGLCVFIISTLAIDFIDEGRLLLEFDLLIFSFGQLPLALVTWVPMFLSTLLAPYQALRLWARGTWTQATGLGCALLAAHAVVLCALPVHVAVEHQLPPASRCVLVFEQVRFLMKSYSFLREAVPGTLRARRGEGIQAPSFSSYLYFLFCPTLIYRETYPRTPYVRWNYVAKNFAQALGCVLYACFILGRLCVPVFANMSREPFSTRALVLSILHATLPGIFMLLLIFFAFLHCWLNAFAEMLRFGDRMFYRDWWNSTSFSNYYRTWNVVVHDWLYSYVYQDGLRLLGARARGVAMLGVFLVSAVAHEYIFCFVLGFFYPVMLILFLVIGGMLNFMMHDQRTGPAWNVLMWTMLFLGQGIQVSLYCQEWYARRHCPLPQATFWGLVTPRSWSCHT

> <PDB ID(s) of Target Chain>


> <UniProt (SwissProt) Recommended Name of Target Chain>
Sterol O-acyltransferase 2

> <UniProt (SwissProt) Entry Name of Target Chain>
ACAT-2

> <UniProt (SwissProt) Primary ID of Target Chain>
O75908

> <UniProt (SwissProt) Secondary ID(s) of Target Chain>
F5H7W4 I6L9H9 Q4VB99 Q4VBA1 Q96TD4 Q9UNR2

> <UniProt (SwissProt) Alternative ID(s) of Target Chain>


> <UniProt (TrEMBL) Submitted Name of Target Chain>


> <UniProt (TrEMBL) Entry Name of Target Chain>


> <UniProt (TrEMBL) Primary ID of Target Chain>


> <UniProt (TrEMBL) Secondary ID(s) of Target Chain>


> <UniProt (TrEMBL) Alternative ID(s) of Target Chain>


$$$$

  Mrv0541 11241417102D          

 48 53  0  0  0  0            999 V2000
   31.2341  -29.3548    0.0000 C   0  0  0  0  0  0  0  0  0  0  0  0
   30.8257  -28.6424    0.0000 C   0  0  2  0  0  0  0  0  0  0  0  0
   30.4129  -29.3522    0.0000 C   0  0  0  0  0  0  0  0  0  0  0  0
   30.1174  -27.4090    0.0000 C   0  0  0  0  0  0  0  0  0  0  0  0
   30.1174  -28.2340    0.0000 C   0  0  2  0  0  0  0  0  0  0  0  0
   30.8294  -26.9923    0.0000 C   0  0  0  0  0  0  0  0  0  0  0  0
   31.5415  -27.4090    0.0000 C   0  0  1  0  0  0  0  0  0  0  0  0
   31.5425  -28.2340    0.0000 C   0  0  1  0  0  0  0  0  0  0  0  0
   32.2536  -28.6433    0.0000 C   0  0  0  0  0  0  0  0  0  0  0  0
   32.9681  -28.2322    0.0000 C   0  0  1  0  0  0  0  0  0  0  0  0
   32.2514  -26.9933    0.0000 C   0  0  2  0  0  0  0  0  0  0  0  0
   32.9667  -27.4118    0.0000 C   0  0  2  0  0  0  0  0  0  0  0  0
   33.6828  -27.0039    0.0000 O   0  0  0  0  0  0  0  0  0  0  0  0
   32.2523  -26.1669    0.0000 C   0  0  2  0  0  0  0  0  0  0  0  0
   32.9746  -25.7573    0.0000 C   0  0  0  0  0  0  0  0  0  0  0  0
   33.6927  -26.1795    0.0000 C   0  0  0  0  0  0  0  0  0  0  0  0
   34.4134  -25.7710    0.0000 C   0  0  0  0  0  0  0  0  0  0  0  0
   34.4223  -24.9386    0.0000 C   0  0  0  0  0  0  0  0  0  0  0  0
   33.7042  -24.5164    0.0000 O   0  0  0  0  0  0  0  0  0  0  0  0
   32.9772  -24.9266    0.0000 C   0  0  0  0  0  0  0  0  0  0  0  0
   35.1361  -24.5344    0.0000 C   0  0  0  0  0  0  0  0  0  0  0  0
   35.8470  -24.9552    0.0000 C   0  0  0  0  0  0  0  0  0  0  0  0
   36.5648  -24.5501    0.0000 N   0  0  0  0  0  0  0  0  0  0  0  0
   36.5729  -23.7242    0.0000 C   0  0  0  0  0  0  0  0  0  0  0  0
   35.8572  -23.3051    0.0000 C   0  0  0  0  0  0  0  0  0  0  0  0
   35.1424  -23.7128    0.0000 C   0  0  0  0  0  0  0  0  0  0  0  0
   32.2654  -24.5095    0.0000 O   0  0  0  0  0  0  0  0  0  0  0  0
   33.6827  -28.6446    0.0000 O   0  0  0  0  0  0  0  0  0  0  0  0
   34.3971  -28.2320    0.0000 C   0  0  0  0  0  0  0  0  0  0  0  0
   35.1117  -28.6444    0.0000 C   0  0  0  0  0  0  0  0  0  0  0  0
   34.3970  -27.4070    0.0000 O   0  0  0  0  0  0  0  0  0  0  0  0
   29.4035  -28.6475    0.0000 O   0  0  0  0  0  0  0  0  0  0  0  0
   28.6884  -28.2361    0.0000 C   0  0  0  0  0  0  0  0  0  0  0  0
   27.9746  -28.6497    0.0000 C   0  0  0  0  0  0  0  0  0  0  0  0
   28.6872  -27.4111    0.0000 O   0  0  0  0  0  0  0  0  0  0  0  0
   30.8193  -30.0680    0.0000 O   0  0  0  0  0  0  0  0  0  0  0  0
   31.2295  -30.7838    0.0000 C   0  0  0  0  0  0  0  0  0  0  0  0
   30.8147  -31.4970    0.0000 C   0  0  0  0  0  0  0  0  0  0  0  0
   32.0546  -30.7864    0.0000 O   0  0  0  0  0  0  0  0  0  0  0  0
   31.5397  -25.7513    0.0000 O   0  0  0  0  0  0  0  0  0  0  0  0
   31.5341  -26.5840    0.0000 C   0  0  0  0  0  0  0  0  0  0  0  0
   32.9591  -26.5840    0.0000 C   0  0  0  0  0  0  0  0  0  0  0  0
   35.1065  -29.4684    0.0000 C   0  0  0  0  0  0  0  0  0  0  0  0
   35.8202  -29.8808    0.0000 C   0  0  0  0  0  0  0  0  0  0  0  0
   36.5357  -29.4681    0.0000 C   0  0  0  0  0  0  0  0  0  0  0  0
   36.5329  -28.6389    0.0000 C   0  0  0  0  0  0  0  0  0  0  0  0
   35.8186  -28.2303    0.0000 C   0  0  0  0  0  0  0  0  0  0  0  0
   37.2508  -29.8796    0.0000 F   0  0  0  0  0  0  0  0  0  0  0  0
  2  1  1  6  0  0  0
  2  3  1  1  0  0  0
  5  4  1  0  0  0  0
  4  6  1  0  0  0  0
  2  5  1  0  0  0  0
  8  2  1  0  0  0  0
  7  6  1  0  0  0  0
  7  8  1  0  0  0  0
 11  7  1  1  0  0  0
  8  9  1  1  0  0  0
 10  9  1  0  0  0  0
 12 10  1  0  0  0  0
 11 12  1  0  0  0  0
 11 14  1  0  0  0  0
 12 13  1  0  0  0  0
 13 16  1  0  0  0  0
 14 15  1  0  0  0  0
 15 16  2  0  0  0  0
 15 20  1  0  0  0  0
 16 17  1  0  0  0  0
 17 18  2  0  0  0  0
 18 19  1  0  0  0  0
 19 20  1  0  0  0  0
 21 22  2  0  0  0  0
 22 23  1  0  0  0  0
 23 24  2  0  0  0  0
 24 25  1  0  0  0  0
 25 26  2  0  0  0  0
 26 21  1  0  0  0  0
 18 21  1  0  0  0  0
 20 27  2  0  0  0  0
 10 28  1  1  0  0  0
 28 29  1  0  0  0  0
 29 30  1  0  0  0  0
 29 31  2  0  0  0  0
  5 32  1  1  0  0  0
 32 33  1  0  0  0  0
 33 34  1  0  0  0  0
 33 35  2  0  0  0  0
  1 36  1  0  0  0  0
 36 37  1  0  0  0  0
 37 38  1  0  0  0  0
 37 39  2  0  0  0  0
 14 40  1  1  0  0  0
  7 41  1  1  0  0  0
 12 42  1  1  0  0  0
 30 43  2  0  0  0  0
 43 44  1  0  0  0  0
 44 45  2  0  0  0  0
 45 46  1  0  0  0  0
 46 47  2  0  0  0  0
 47 30  1  0  0  0  0
 45 48  1  0  0  0  0
M  END
> <From>
www.bindingDB.org

> <BindingDB Reactant_set_id>
51053289

> <Ligand InChI>
InChI=1S/C36H38FNO10/c1-19(39)44-18-35(4)26-16-28(47-32(42)21-8-10-23(37)11-9-21)36(5)31(34(26,3)13-12-27(35)45-20(2)40)30(41)29-25(48-36)15-24(46-33(29)43)22-7-6-14-38-17-22/h6-11,14-15,17,26-28,30-31,41H,12-13,16,18H2,1-5H3/t26-,27+,28+,30+,31-,34+,35+,36-/m1/s1

> <Ligand InChI Key>
DEJIYPKETDAARD-HRSZXCBJSA-N

> <BindingDB MonomerID>
50429599

> <BindingDB Ligand Name>
CHEMBL2333810

> <Target Name>
Sterol O-acyltransferase 2

> <Target Source Organism According to Curator or DataSource>


> <Ki (nM)>


> <IC50 (nM)>
 1.7

> <Kd (nM)>


> <EC50 (nM)>


> <kon (M-1-s-1)>


> <koff (s-1)>


> <pH>


> <Temp (C)>


> <Curation/DataSource>
ChEMBL

> <Article DOI>
10.1016/j.bmcl.2012.12.099

> <BindingDB Entry DOI>
10.7270/Q2P270HW

> <PMID>
23369538

> <PubChem AID>


> <Patent Number>


> <Authors>
Ohtawa, M; Yamazaki, H; Ohte, S; Matsuda, D; Ohshiro, T; Rudel, LL; Omura, S; Tomoda, H; Nagamitsu, T

> <Institution>
Kitasato University

> <Link to Ligand in BindingDB>
http://www.bindingdb.org/bind/chemsearch/marvin/MolStructure.jsp?monomerid=50429599

> <Link to Target in BindingDB>
http://www.bindingdb.org/jsp/dbsearch/PrimarySearch_ki.jsp?energyterm=kJ/mole&tag=pol&polymerid=7773&target=Sterol+O-acyltransferase+2&column=ki&startPg=0&Increment=50&submit=Search

> <Link to Ligand-Target Pair in BindingDB>
http://www.bindingdb.org/jsp/dbsearch/PrimarySearch_ki.jsp?energyterm=kJ/mole&tag=r21&monomerid=50429599&enzyme=Sterol+O-acyltransferase+2&column=ki&startPg=0&Increment=50&submit=Search

> <Ligand HET ID in PDB>


> <PDB ID(s) for Ligand-Target Complex>


> <PubChem CID>
71560924

> <PubChem SID>
164158474

> <ChEBI ID of Ligand>


> <ChEMBL ID of Ligand>
CHEMBL2333810

> <DrugBank ID of Ligand>


> <IUPHAR_GRAC ID of Ligand>


> <KEGG ID of Ligand>


> <ZINC ID of Ligand>
ZINC95586579

> <Number of Protein Chains in Target (>1 implies a multichain complex)>
1

> <BindingDB Target Chain Sequence>
MEPGGARLRLQRTEGLGGERERQPCGDGNTETHRAPDLVQWTRHMEAVKAQLLEQAQGQLRELLDRAMREAIQSYPSQDKPLPPPPPGSLSRTQEPSLGKQKVFIIRKSLLDELMEVQHFRTIYHMFIAGLCVFIISTLAIDFIDEGRLLLEFDLLIFSFGQLPLALVTWVPMFLSTLLAPYQALRLWARGTWTQATGLGCALLAAHAVVLCALPVHVAVEHQLPPASRCVLVFEQVRFLMKSYSFLREAVPGTLRARRGEGIQAPSFSSYLYFLFCPTLIYRETYPRTPYVRWNYVAKNFAQALGCVLYACFILGRLCVPVFANMSREPFSTRALVLSILHATLPGIFMLLLIFFAFLHCWLNAFAEMLRFGDRMFYRDWWNSTSFSNYYRTWNVVVHDWLYSYVYQDGLRLLGARARGVAMLGVFLVSAVAHEYIFCFVLGFFYPVMLILFLVIGGMLNFMMHDQRTGPAWNVLMWTMLFLGQGIQVSLYCQEWYARRHCPLPQATFWGLVTPRSWSCHT

> <PDB ID(s) of Target Chain>


> <UniProt (SwissProt) Recommended Name of Target Chain>
Sterol O-acyltransferase 2

> <UniProt (SwissProt) Entry Name of Target Chain>
ACAT-2

> <UniProt (SwissProt) Primary ID of Target Chain>
O75908

> <UniProt (SwissProt) Secondary ID(s) of Target Chain>
F5H7W4 I6L9H9 Q4VB99 Q4VBA1 Q96TD4 Q9UNR2

> <UniProt (SwissProt) Alternative ID(s) of Target Chain>


> <UniProt (TrEMBL) Submitted Name of Target Chain>


> <UniProt (TrEMBL) Entry Name of Target Chain>


> <UniProt (TrEMBL) Primary ID of Target Chain>


> <UniProt (TrEMBL) Secondary ID(s) of Target Chain>


> <UniProt (TrEMBL) Alternative ID(s) of Target Chain>


$$$$

  Mrv0541 11241417102D          

 48 53  0  0  0  0            999 V2000
   -0.2084   -5.5999    0.0000 C   0  0  0  0  0  0  0  0  0  0  0  0
   -0.6166   -4.8874    0.0000 C   0  0  2  0  0  0  0  0  0  0  0  0
   -1.0371   -5.5973    0.0000 C   0  0  0  0  0  0  0  0  0  0  0  0
   -1.3250   -3.6541    0.0000 C   0  0  0  0  0  0  0  0  0  0  0  0
   -1.3250   -4.4791    0.0000 C   0  0  2  0  0  0  0  0  0  0  0  0
   -0.6204   -3.2375    0.0000 C   0  0  0  0  0  0  0  0  0  0  0  0
    0.0990   -3.6541    0.0000 C   0  0  1  0  0  0  0  0  0  0  0  0
    0.1000   -4.4791    0.0000 C   0  0  1  0  0  0  0  0  0  0  0  0
    0.8112   -4.8884    0.0000 C   0  0  0  0  0  0  0  0  0  0  0  0
    1.5257   -4.4773    0.0000 C   0  0  1  0  0  0  0  0  0  0  0  0
    0.8090   -3.2384    0.0000 C   0  0  2  0  0  0  0  0  0  0  0  0
    1.5242   -3.6570    0.0000 C   0  0  2  0  0  0  0  0  0  0  0  0
    2.2403   -3.2490    0.0000 O   0  0  0  0  0  0  0  0  0  0  0  0
    0.8099   -2.4121    0.0000 C   0  0  2  0  0  0  0  0  0  0  0  0
    1.5322   -2.0025    0.0000 C   0  0  0  0  0  0  0  0  0  0  0  0
    2.2503   -2.4247    0.0000 C   0  0  0  0  0  0  0  0  0  0  0  0
    2.9709   -2.0162    0.0000 C   0  0  0  0  0  0  0  0  0  0  0  0
    2.9798   -1.1839    0.0000 C   0  0  0  0  0  0  0  0  0  0  0  0
    2.2617   -0.7617    0.0000 O   0  0  0  0  0  0  0  0  0  0  0  0
    1.5347   -1.1719    0.0000 C   0  0  0  0  0  0  0  0  0  0  0  0
    3.6935   -0.7796    0.0000 C   0  0  0  0  0  0  0  0  0  0  0  0
    4.4044   -1.2004    0.0000 C   0  0  0  0  0  0  0  0  0  0  0  0
    5.1222   -0.7953    0.0000 N   0  0  0  0  0  0  0  0  0  0  0  0
    5.1303    0.0361    0.0000 C   0  0  0  0  0  0  0  0  0  0  0  0
    4.4146    0.4505    0.0000 C   0  0  0  0  0  0  0  0  0  0  0  0
    3.6998    0.0497    0.0000 C   0  0  0  0  0  0  0  0  0  0  0  0
    0.8230   -0.7547    0.0000 O   0  0  0  0  0  0  0  0  0  0  0  0
    2.2402   -4.8897    0.0000 O   0  0  0  0  0  0  0  0  0  0  0  0
    2.9546   -4.4771    0.0000 C   0  0  0  0  0  0  0  0  0  0  0  0
    3.6691   -4.8895    0.0000 C   0  0  0  0  0  0  0  0  0  0  0  0
    2.9545   -3.6521    0.0000 O   0  0  0  0  0  0  0  0  0  0  0  0
   -2.0444   -4.8927    0.0000 O   0  0  0  0  0  0  0  0  0  0  0  0
   -2.7543   -4.4812    0.0000 C   0  0  0  0  0  0  0  0  0  0  0  0
   -3.4738   -4.8947    0.0000 C   0  0  0  0  0  0  0  0  0  0  0  0
   -2.7615   -3.6562    0.0000 O   0  0  0  0  0  0  0  0  0  0  0  0
   -0.6269   -6.3131    0.0000 O   0  0  0  0  0  0  0  0  0  0  0  0
   -0.2205   -7.0288    0.0000 C   0  0  0  0  0  0  0  0  0  0  0  0
   -0.6307   -7.7420    0.0000 C   0  0  0  0  0  0  0  0  0  0  0  0
    0.6121   -7.0315    0.0000 O   0  0  0  0  0  0  0  0  0  0  0  0
    0.0972   -1.9965    0.0000 O   0  0  0  0  0  0  0  0  0  0  0  0
    0.0917   -2.8291    0.0000 C   0  0  0  0  0  0  0  0  0  0  0  0
    1.5166   -2.8291    0.0000 C   0  0  0  0  0  0  0  0  0  0  0  0
    3.6639   -5.7135    0.0000 C   0  0  0  0  0  0  0  0  0  0  0  0
    4.3776   -6.1258    0.0000 C   0  0  0  0  0  0  0  0  0  0  0  0
    5.0930   -5.7132    0.0000 C   0  0  0  0  0  0  0  0  0  0  0  0
    5.0902   -4.8840    0.0000 C   0  0  0  0  0  0  0  0  0  0  0  0
    4.3760   -4.4753    0.0000 C   0  0  0  0  0  0  0  0  0  0  0  0
    5.8081   -6.1246    0.0000 Br  0  0  0  0  0  0  0  0  0  0  0  0
  2  1  1  6  0  0  0
  2  3  1  1  0  0  0
  5  4  1  0  0  0  0
  4  6  1  0  0  0  0
  2  5  1  0  0  0  0
  8  2  1  0  0  0  0
  7  6  1  0  0  0  0
  7  8  1  0  0  0  0
 11  7  1  1  0  0  0
  8  9  1  1  0  0  0
 10  9  1  0  0  0  0
 12 10  1  0  0  0  0
 11 12  1  0  0  0  0
 11 14  1  0  0  0  0
 12 13  1  0  0  0  0
 13 16  1  0  0  0  0
 14 15  1  0  0  0  0
 15 16  2  0  0  0  0
 15 20  1  0  0  0  0
 16 17  1  0  0  0  0
 17 18  2  0  0  0  0
 18 19  1  0  0  0  0
 19 20  1  0  0  0  0
 21 22  2  0  0  0  0
 22 23  1  0  0  0  0
 23 24  2  0  0  0  0
 24 25  1  0  0  0  0
 25 26  2  0  0  0  0
 26 21  1  0  0  0  0
 18 21  1  0  0  0  0
 20 27  2  0  0  0  0
 10 28  1  1  0  0  0
 28 29  1  0  0  0  0
 29 30  1  0  0  0  0
 29 31  2  0  0  0  0
  5 32  1  1  0  0  0
 32 33  1  0  0  0  0
 33 34  1  0  0  0  0
 33 35  2  0  0  0  0
  1 36  1  0  0  0  0
 36 37  1  0  0  0  0
 37 38  1  0  0  0  0
 37 39  2  0  0  0  0
 14 40  1  1  0  0  0
  7 41  1  1  0  0  0
 12 42  1  1  0  0  0
 30 43  2  0  0  0  0
 43 44  1  0  0  0  0
 44 45  2  0  0  0  0
 45 46  1  0  0  0  0
 46 47  2  0  0  0  0
 47 30  1  0  0  0  0
 45 48  1  0  0  0  0
M  END
> <From>
www.bindingDB.org

> <BindingDB Reactant_set_id>
51053288

> <Ligand InChI>
InChI=1S/C36H38BrNO10/c1-19(39)44-18-35(4)26-16-28(47-32(42)21-8-10-23(37)11-9-21)36(5)31(34(26,3)13-12-27(35)45-20(2)40)30(41)29-25(48-36)15-24(46-33(29)43)22-7-6-14-38-17-22/h6-11,14-15,17,26-28,30-31,41H,12-13,16,18H2,1-5H3/t26-,27+,28+,30+,31-,34+,35+,36-/m1/s1

> <Ligand InChI Key>
QAORGHLWCCFYCD-HRSZXCBJSA-N

> <BindingDB MonomerID>
50429598

> <BindingDB Ligand Name>
CHEMBL2333811

> <Target Name>
Sterol O-acyltransferase 2

> <Target Source Organism According to Curator or DataSource>


> <Ki (nM)>


> <IC50 (nM)>
 2.0

> <Kd (nM)>


> <EC50 (nM)>


> <kon (M-1-s-1)>


> <koff (s-1)>


> <pH>


> <Temp (C)>


> <Curation/DataSource>
ChEMBL

> <Article DOI>
10.1016/j.bmcl.2012.12.099

> <BindingDB Entry DOI>
10.7270/Q2P270HW

> <PMID>
23369538

> <PubChem AID>


> <Patent Number>


> <Authors>
Ohtawa, M; Yamazaki, H; Ohte, S; Matsuda, D; Ohshiro, T; Rudel, LL; Omura, S; Tomoda, H; Nagamitsu, T

> <Institution>
Kitasato University

> <Link to Ligand in BindingDB>
http://www.bindingdb.org/bind/chemsearch/marvin/MolStructure.jsp?monomerid=50429598

> <Link to Target in BindingDB>
http://www.bindingdb.org/jsp/dbsearch/PrimarySearch_ki.jsp?energyterm=kJ/mole&tag=pol&polymerid=7773&target=Sterol+O-acyltransferase+2&column=ki&startPg=0&Increment=50&submit=Search

> <Link to Ligand-Target Pair in BindingDB>
http://www.bindingdb.org/jsp/dbsearch/PrimarySearch_ki.jsp?energyterm=kJ/mole&tag=r21&monomerid=50429598&enzyme=Sterol+O-acyltransferase+2&column=ki&startPg=0&Increment=50&submit=Search

> <Ligand HET ID in PDB>


> <PDB ID(s) for Ligand-Target Complex>


> <PubChem CID>
71560925

> <PubChem SID>
164158473

> <ChEBI ID of Ligand>


> <ChEMBL ID of Ligand>
CHEMBL2333811

> <DrugBank ID of Ligand>


> <IUPHAR_GRAC ID of Ligand>


> <KEGG ID of Ligand>


> <ZINC ID of Ligand>
ZINC95586621

> <Number of Protein Chains in Target (>1 implies a multichain complex)>
1

> <BindingDB Target Chain Sequence>
MEPGGARLRLQRTEGLGGERERQPCGDGNTETHRAPDLVQWTRHMEAVKAQLLEQAQGQLRELLDRAMREAIQSYPSQDKPLPPPPPGSLSRTQEPSLGKQKVFIIRKSLLDELMEVQHFRTIYHMFIAGLCVFIISTLAIDFIDEGRLLLEFDLLIFSFGQLPLALVTWVPMFLSTLLAPYQALRLWARGTWTQATGLGCALLAAHAVVLCALPVHVAVEHQLPPASRCVLVFEQVRFLMKSYSFLREAVPGTLRARRGEGIQAPSFSSYLYFLFCPTLIYRETYPRTPYVRWNYVAKNFAQALGCVLYACFILGRLCVPVFANMSREPFSTRALVLSILHATLPGIFMLLLIFFAFLHCWLNAFAEMLRFGDRMFYRDWWNSTSFSNYYRTWNVVVHDWLYSYVYQDGLRLLGARARGVAMLGVFLVSAVAHEYIFCFVLGFFYPVMLILFLVIGGMLNFMMHDQRTGPAWNVLMWTMLFLGQGIQVSLYCQEWYARRHCPLPQATFWGLVTPRSWSCHT

> <PDB ID(s) of Target Chain>


> <UniProt (SwissProt) Recommended Name of Target Chain>
Sterol O-acyltransferase 2

> <UniProt (SwissProt) Entry Name of Target Chain>
ACAT-2

> <UniProt (SwissProt) Primary ID of Target Chain>
O75908

> <UniProt (SwissProt) Secondary ID(s) of Target Chain>
F5H7W4 I6L9H9 Q4VB99 Q4VBA1 Q96TD4 Q9UNR2

> <UniProt (SwissProt) Alternative ID(s) of Target Chain>


> <UniProt (TrEMBL) Submitted Name of Target Chain>


> <UniProt (TrEMBL) Entry Name of Target Chain>


> <UniProt (TrEMBL) Primary ID of Target Chain>


> <UniProt (TrEMBL) Secondary ID(s) of Target Chain>


> <UniProt (TrEMBL) Alternative ID(s) of Target Chain>


$$$$

  Mrv0541 11241417102D          

 49 54  0  0  0  0            999 V2000
   10.2503   -5.9335    0.0000 C   0  0  0  0  0  0  0  0  0  0  0  0
    9.8419   -5.2210    0.0000 C   0  0  2  0  0  0  0  0  0  0  0  0
    9.4290   -5.9309    0.0000 C   0  0  0  0  0  0  0  0  0  0  0  0
    9.1336   -3.9877    0.0000 C   0  0  0  0  0  0  0  0  0  0  0  0
    9.1336   -4.8126    0.0000 C   0  0  2  0  0  0  0  0  0  0  0  0
    9.8457   -3.5709    0.0000 C   0  0  0  0  0  0  0  0  0  0  0  0
   10.5576   -3.9877    0.0000 C   0  0  1  0  0  0  0  0  0  0  0  0
   10.5587   -4.8126    0.0000 C   0  0  1  0  0  0  0  0  0  0  0  0
   11.2698   -5.2220    0.0000 C   0  0  0  0  0  0  0  0  0  0  0  0
   11.9844   -4.8108    0.0000 C   0  0  1  0  0  0  0  0  0  0  0  0
   11.2677   -3.5719    0.0000 C   0  0  2  0  0  0  0  0  0  0  0  0
   11.9830   -3.9904    0.0000 C   0  0  2  0  0  0  0  0  0  0  0  0
   12.6990   -3.5825    0.0000 O   0  0  0  0  0  0  0  0  0  0  0  0
   11.2685   -2.7456    0.0000 C   0  0  2  0  0  0  0  0  0  0  0  0
   11.9908   -2.3360    0.0000 C   0  0  0  0  0  0  0  0  0  0  0  0
   12.7090   -2.7582    0.0000 C   0  0  0  0  0  0  0  0  0  0  0  0
   13.4297   -2.3496    0.0000 C   0  0  0  0  0  0  0  0  0  0  0  0
   13.4385   -1.5172    0.0000 C   0  0  0  0  0  0  0  0  0  0  0  0
   12.7204   -1.0951    0.0000 O   0  0  0  0  0  0  0  0  0  0  0  0
   11.9935   -1.5052    0.0000 C   0  0  0  0  0  0  0  0  0  0  0  0
   14.1524   -1.1130    0.0000 C   0  0  0  0  0  0  0  0  0  0  0  0
   14.8632   -1.5339    0.0000 C   0  0  0  0  0  0  0  0  0  0  0  0
   15.5810   -1.1286    0.0000 N   0  0  0  0  0  0  0  0  0  0  0  0
   15.5891   -0.3028    0.0000 C   0  0  0  0  0  0  0  0  0  0  0  0
   14.8735    0.1171    0.0000 C   0  0  0  0  0  0  0  0  0  0  0  0
   14.1586   -0.2914    0.0000 C   0  0  0  0  0  0  0  0  0  0  0  0
   11.2816   -1.0881    0.0000 O   0  0  0  0  0  0  0  0  0  0  0  0
   12.6990   -5.2232    0.0000 O   0  0  0  0  0  0  0  0  0  0  0  0
   13.4133   -4.8107    0.0000 C   0  0  0  0  0  0  0  0  0  0  0  0
   14.1279   -5.2231    0.0000 C   0  0  0  0  0  0  0  0  0  0  0  0
   13.4132   -3.9856    0.0000 O   0  0  0  0  0  0  0  0  0  0  0  0
    8.4197   -5.2262    0.0000 O   0  0  0  0  0  0  0  0  0  0  0  0
    7.7046   -4.8147    0.0000 C   0  0  0  0  0  0  0  0  0  0  0  0
    6.9908   -5.2282    0.0000 C   0  0  0  0  0  0  0  0  0  0  0  0
    7.7034   -3.9897    0.0000 O   0  0  0  0  0  0  0  0  0  0  0  0
    9.8355   -6.6467    0.0000 O   0  0  0  0  0  0  0  0  0  0  0  0
   10.2458   -7.3625    0.0000 C   0  0  0  0  0  0  0  0  0  0  0  0
    9.8309   -8.0757    0.0000 C   0  0  0  0  0  0  0  0  0  0  0  0
   11.0707   -7.3651    0.0000 O   0  0  0  0  0  0  0  0  0  0  0  0
   10.5558   -2.3298    0.0000 O   0  0  0  0  0  0  0  0  0  0  0  0
   10.5503   -3.1626    0.0000 C   0  0  0  0  0  0  0  0  0  0  0  0
   11.9754   -3.1626    0.0000 C   0  0  0  0  0  0  0  0  0  0  0  0
   14.1228   -6.0471    0.0000 C   0  0  0  0  0  0  0  0  0  0  0  0
   14.8365   -6.4594    0.0000 C   0  0  0  0  0  0  0  0  0  0  0  0
   15.5519   -6.0468    0.0000 C   0  0  0  0  0  0  0  0  0  0  0  0
   15.5491   -5.2174    0.0000 C   0  0  0  0  0  0  0  0  0  0  0  0
   14.8348   -4.8089    0.0000 C   0  0  0  0  0  0  0  0  0  0  0  0
   16.2669   -6.4582    0.0000 S   0  0  0  0  0  0  0  0  0  0  0  0
   16.2682   -7.2832    0.0000 C   0  0  0  0  0  0  0  0  0  0  0  0
  2  1  1  6  0  0  0
  2  3  1  1  0  0  0
  5  4  1  0  0  0  0
  4  6  1  0  0  0  0
  2  5  1  0  0  0  0
  8  2  1  0  0  0  0
  7  6  1  0  0  0  0
  7  8  1  0  0  0  0
 11  7  1  1  0  0  0
  8  9  1  1  0  0  0
 10  9  1  0  0  0  0
 12 10  1  0  0  0  0
 11 12  1  0  0  0  0
 11 14  1  0  0  0  0
 12 13  1  0  0  0  0
 13 16  1  0  0  0  0
 14 15  1  0  0  0  0
 15 16  2  0  0  0  0
 15 20  1  0  0  0  0
 16 17  1  0  0  0  0
 17 18  2  0  0  0  0
 18 19  1  0  0  0  0
 19 20  1  0  0  0  0
 21 22  2  0  0  0  0
 22 23  1  0  0  0  0
 23 24  2  0  0  0  0
 24 25  1  0  0  0  0
 25 26  2  0  0  0  0
 26 21  1  0  0  0  0
 18 21  1  0  0  0  0
 20 27  2  0  0  0  0
 10 28  1  1  0  0  0
 28 29  1  0  0  0  0
 29 30  1  0  0  0  0
 29 31  2  0  0  0  0
  5 32  1  1  0  0  0
 32 33  1  0  0  0  0
 33 34  1  0  0  0  0
 33 35  2  0  0  0  0
  1 36  1  0  0  0  0
 36 37  1  0  0  0  0
 37 38  1  0  0  0  0
 37 39  2  0  0  0  0
 14 40  1  1  0  0  0
  7 41  1  1  0  0  0
 12 42  1  1  0  0  0
 30 43  2  0  0  0  0
 43 44  1  0  0  0  0
 44 45  2  0  0  0  0
 45 46  1  0  0  0  0
 46 47  2  0  0  0  0
 47 30  1  0  0  0  0
 45 48  1  0  0  0  0
 48 49  1  0  0  0  0
M  END
> <From>
www.bindingDB.org

> <BindingDB Reactant_set_id>
51053287

> <Ligand InChI>
InChI=1S/C37H41NO10S/c1-20(39)44-19-36(4)27-17-29(47-33(42)22-9-11-24(49-6)12-10-22)37(5)32(35(27,3)14-13-28(36)45-21(2)40)31(41)30-26(48-37)16-25(46-34(30)43)23-8-7-15-38-18-23/h7-12,15-16,18,27-29,31-32,41H,13-14,17,19H2,1-6H3/t27-,28+,29+,31+,32-,35+,36+,37-/m1/s1

> <Ligand InChI Key>
UXKJLOHIXKUDBA-ZRPSWOMSSA-N

> <BindingDB MonomerID>
50429597

> <BindingDB Ligand Name>
CHEMBL2333812

> <Target Name>
Sterol O-acyltransferase 2

> <Target Source Organism According to Curator or DataSource>


> <Ki (nM)>


> <IC50 (nM)>
 2.7

> <Kd (nM)>


> <EC50 (nM)>


> <kon (M-1-s-1)>


> <koff (s-1)>


> <pH>


> <Temp (C)>


> <Curation/DataSource>
ChEMBL

> <Article DOI>
10.1016/j.bmcl.2012.12.099

> <BindingDB Entry DOI>
10.7270/Q2P270HW

> <PMID>
23369538

> <PubChem AID>


> <Patent Number>


> <Authors>
Ohtawa, M; Yamazaki, H; Ohte, S; Matsuda, D; Ohshiro, T; Rudel, LL; Omura, S; Tomoda, H; Nagamitsu, T

> <Institution>
Kitasato University

> <Link to Ligand in BindingDB>
http://www.bindingdb.org/bind/chemsearch/marvin/MolStructure.jsp?monomerid=50429597

> <Link to Target in BindingDB>
http://www.bindingdb.org/jsp/dbsearch/PrimarySearch_ki.jsp?energyterm=kJ/mole&tag=pol&polymerid=7773&target=Sterol+O-acyltransferase+2&column=ki&startPg=0&Increment=50&submit=Search

> <Link to Ligand-Target Pair in BindingDB>
http://www.bindingdb.org/jsp/dbsearch/PrimarySearch_ki.jsp?energyterm=kJ/mole&tag=r21&monomerid=50429597&enzyme=Sterol+O-acyltransferase+2&column=ki&startPg=0&Increment=50&submit=Search

> <Ligand HET ID in PDB>


> <PDB ID(s) for Ligand-Target Complex>


> <PubChem CID>
71560926

> <PubChem SID>
164158472

> <ChEBI ID of Ligand>


> <ChEMBL ID of Ligand>
CHEMBL2333812

> <DrugBank ID of Ligand>


> <IUPHAR_GRAC ID of Ligand>


> <KEGG ID of Ligand>


> <ZINC ID of Ligand>
ZINC95587650

> <Number of Protein Chains in Target (>1 implies a multichain complex)>
1

> <BindingDB Target Chain Sequence>
MEPGGARLRLQRTEGLGGERERQPCGDGNTETHRAPDLVQWTRHMEAVKAQLLEQAQGQLRELLDRAMREAIQSYPSQDKPLPPPPPGSLSRTQEPSLGKQKVFIIRKSLLDELMEVQHFRTIYHMFIAGLCVFIISTLAIDFIDEGRLLLEFDLLIFSFGQLPLALVTWVPMFLSTLLAPYQALRLWARGTWTQATGLGCALLAAHAVVLCALPVHVAVEHQLPPASRCVLVFEQVRFLMKSYSFLREAVPGTLRARRGEGIQAPSFSSYLYFLFCPTLIYRETYPRTPYVRWNYVAKNFAQALGCVLYACFILGRLCVPVFANMSREPFSTRALVLSILHATLPGIFMLLLIFFAFLHCWLNAFAEMLRFGDRMFYRDWWNSTSFSNYYRTWNVVVHDWLYSYVYQDGLRLLGARARGVAMLGVFLVSAVAHEYIFCFVLGFFYPVMLILFLVIGGMLNFMMHDQRTGPAWNVLMWTMLFLGQGIQVSLYCQEWYARRHCPLPQATFWGLVTPRSWSCHT

> <PDB ID(s) of Target Chain>


> <UniProt (SwissProt) Recommended Name of Target Chain>
Sterol O-acyltransferase 2

> <UniProt (SwissProt) Entry Name of Target Chain>
ACAT-2

> <UniProt (SwissProt) Primary ID of Target Chain>
O75908

> <UniProt (SwissProt) Secondary ID(s) of Target Chain>
F5H7W4 I6L9H9 Q4VB99 Q4VBA1 Q96TD4 Q9UNR2

> <UniProt (SwissProt) Alternative ID(s) of Target Chain>


> <UniProt (TrEMBL) Submitted Name of Target Chain>


> <UniProt (TrEMBL) Entry Name of Target Chain>


> <UniProt (TrEMBL) Primary ID of Target Chain>


> <UniProt (TrEMBL) Secondary ID(s) of Target Chain>


> <UniProt (TrEMBL) Alternative ID(s) of Target Chain>


$$$$

  Mrv0541 11241417102D          

 48 53  0  0  0  0            999 V2000
   20.5956   -5.3749    0.0000 C   0  0  0  0  0  0  0  0  0  0  0  0
   20.1873   -4.6625    0.0000 C   0  0  2  0  0  0  0  0  0  0  0  0
   19.7745   -5.3723    0.0000 C   0  0  0  0  0  0  0  0  0  0  0  0
   19.4790   -3.4291    0.0000 C   0  0  0  0  0  0  0  0  0  0  0  0
   19.4790   -4.2541    0.0000 C   0  0  2  0  0  0  0  0  0  0  0  0
   20.1910   -3.0125    0.0000 C   0  0  0  0  0  0  0  0  0  0  0  0
   20.9030   -3.4291    0.0000 C   0  0  1  0  0  0  0  0  0  0  0  0
   20.9040   -4.2541    0.0000 C   0  0  1  0  0  0  0  0  0  0  0  0
   21.6151   -4.6634    0.0000 C   0  0  0  0  0  0  0  0  0  0  0  0
   22.3296   -4.2523    0.0000 C   0  0  1  0  0  0  0  0  0  0  0  0
   21.6129   -3.0135    0.0000 C   0  0  2  0  0  0  0  0  0  0  0  0
   22.3282   -3.4319    0.0000 C   0  0  2  0  0  0  0  0  0  0  0  0
   23.0443   -3.0241    0.0000 O   0  0  0  0  0  0  0  0  0  0  0  0
   21.6137   -2.1871    0.0000 C   0  0  2  0  0  0  0  0  0  0  0  0
   22.3361   -1.7775    0.0000 C   0  0  0  0  0  0  0  0  0  0  0  0
   23.0542   -2.1997    0.0000 C   0  0  0  0  0  0  0  0  0  0  0  0
   23.7749   -1.7912    0.0000 C   0  0  0  0  0  0  0  0  0  0  0  0
   23.7838   -0.9589    0.0000 C   0  0  0  0  0  0  0  0  0  0  0  0
   23.0657   -0.5367    0.0000 O   0  0  0  0  0  0  0  0  0  0  0  0
   22.3387   -0.9469    0.0000 C   0  0  0  0  0  0  0  0  0  0  0  0
   24.4975   -0.5546    0.0000 C   0  0  0  0  0  0  0  0  0  0  0  0
   25.2083   -0.9754    0.0000 C   0  0  0  0  0  0  0  0  0  0  0  0
   25.9261   -0.5703    0.0000 N   0  0  0  0  0  0  0  0  0  0  0  0
   25.9342    0.2611    0.0000 C   0  0  0  0  0  0  0  0  0  0  0  0
   25.2186    0.6755    0.0000 C   0  0  0  0  0  0  0  0  0  0  0  0
   24.5038    0.2747    0.0000 C   0  0  0  0  0  0  0  0  0  0  0  0
   21.6269   -0.5297    0.0000 O   0  0  0  0  0  0  0  0  0  0  0  0
   23.0442   -4.6647    0.0000 O   0  0  0  0  0  0  0  0  0  0  0  0
   23.7585   -4.2521    0.0000 C   0  0  0  0  0  0  0  0  0  0  0  0
   24.4731   -4.6645    0.0000 C   0  0  0  0  0  0  0  0  0  0  0  0
   23.7584   -3.4271    0.0000 O   0  0  0  0  0  0  0  0  0  0  0  0
   18.7651   -4.6676    0.0000 O   0  0  0  0  0  0  0  0  0  0  0  0
   18.0501   -4.2562    0.0000 C   0  0  0  0  0  0  0  0  0  0  0  0
   17.3362   -4.6698    0.0000 C   0  0  0  0  0  0  0  0  0  0  0  0
   18.0488   -3.4312    0.0000 O   0  0  0  0  0  0  0  0  0  0  0  0
   20.1808   -6.0881    0.0000 O   0  0  0  0  0  0  0  0  0  0  0  0
   20.5911   -6.8038    0.0000 C   0  0  0  0  0  0  0  0  0  0  0  0
   20.1763   -7.5170    0.0000 C   0  0  0  0  0  0  0  0  0  0  0  0
   21.4161   -6.8065    0.0000 O   0  0  0  0  0  0  0  0  0  0  0  0
   20.9011   -1.7714    0.0000 O   0  0  0  0  0  0  0  0  0  0  0  0
   20.8957   -2.6041    0.0000 C   0  0  0  0  0  0  0  0  0  0  0  0
   22.3206   -2.6041    0.0000 C   0  0  0  0  0  0  0  0  0  0  0  0
   24.4679   -5.4885    0.0000 C   0  0  0  0  0  0  0  0  0  0  0  0
   25.1816   -5.9009    0.0000 C   0  0  0  0  0  0  0  0  0  0  0  0
   25.8969   -5.4882    0.0000 C   0  0  0  0  0  0  0  0  0  0  0  0
   25.8942   -4.6589    0.0000 C   0  0  0  0  0  0  0  0  0  0  0  0
   25.1800   -4.2504    0.0000 C   0  0  0  0  0  0  0  0  0  0  0  0
   26.6120   -5.8997    0.0000 I   0  0  0  0  0  0  0  0  0  0  0  0
  2  1  1  6  0  0  0
  2  3  1  1  0  0  0
  5  4  1  0  0  0  0
  4  6  1  0  0  0  0
  2  5  1  0  0  0  0
  8  2  1  0  0  0  0
  7  6  1  0  0  0  0
  7  8  1  0  0  0  0
 11  7  1  1  0  0  0
  8  9  1  1  0  0  0
 10  9  1  0  0  0  0
 12 10  1  0  0  0  0
 11 12  1  0  0  0  0
 11 14  1  0  0  0  0
 12 13  1  0  0  0  0
 13 16  1  0  0  0  0
 14 15  1  0  0  0  0
 15 16  2  0  0  0  0
 15 20  1  0  0  0  0
 16 17  1  0  0  0  0
 17 18  2  0  0  0  0
 18 19  1  0  0  0  0
 19 20  1  0  0  0  0
 21 22  2  0  0  0  0
 22 23  1  0  0  0  0
 23 24  2  0  0  0  0
 24 25  1  0  0  0  0
 25 26  2  0  0  0  0
 26 21  1  0  0  0  0
 18 21  1  0  0  0  0
 20 27  2  0  0  0  0
 10 28  1  1  0  0  0
 28 29  1  0  0  0  0
 29 30  1  0  0  0  0
 29 31  2  0  0  0  0
  5 32  1  1  0  0  0
 32 33  1  0  0  0  0
 33 34  1  0  0  0  0
 33 35  2  0  0  0  0
  1 36  1  0  0  0  0
 36 37  1  0  0  0  0
 37 38  1  0  0  0  0
 37 39  2  0  0  0  0
 14 40  1  1  0  0  0
  7 41  1  1  0  0  0
 12 42  1  1  0  0  0
 30 43  2  0  0  0  0
 43 44  1  0  0  0  0
 44 45  2  0  0  0  0
 45 46  1  0  0  0  0
 46 47  2  0  0  0  0
 47 30  1  0  0  0  0
 45 48  1  0  0  0  0
M  END
> <From>
www.bindingDB.org

> <BindingDB Reactant_set_id>
51053286

> <Ligand InChI>
InChI=1S/C36H38INO10/c1-19(39)44-18-35(4)26-16-28(47-32(42)21-8-10-23(37)11-9-21)36(5)31(34(26,3)13-12-27(35)45-20(2)40)30(41)29-25(48-36)15-24(46-33(29)43)22-7-6-14-38-17-22/h6-11,14-15,17,26-28,30-31,41H,12-13,16,18H2,1-5H3/t26-,27+,28+,30+,31-,34+,35+,36-/m1/s1

> <Ligand InChI Key>
GKHKKKFWFAYGDA-HRSZXCBJSA-N

> <BindingDB MonomerID>
50429596

> <BindingDB Ligand Name>
CHEMBL2333813

> <Target Name>
Sterol O-acyltransferase 2

> <Target Source Organism According to Curator or DataSource>


> <Ki (nM)>


> <IC50 (nM)>
 4.0

> <Kd (nM)>


> <EC50 (nM)>


> <kon (M-1-s-1)>


> <koff (s-1)>


> <pH>


> <Temp (C)>


> <Curation/DataSource>
ChEMBL

> <Article DOI>
10.1016/j.bmcl.2012.12.099

> <BindingDB Entry DOI>
10.7270/Q2P270HW

> <PMID>
23369538

> <PubChem AID>


> <Patent Number>


> <Authors>
Ohtawa, M; Yamazaki, H; Ohte, S; Matsuda, D; Ohshiro, T; Rudel, LL; Omura, S; Tomoda, H; Nagamitsu, T

> <Institution>
Kitasato University

> <Link to Ligand in BindingDB>
http://www.bindingdb.org/bind/chemsearch/marvin/MolStructure.jsp?monomerid=50429596

> <Link to Target in BindingDB>
http://www.bindingdb.org/jsp/dbsearch/PrimarySearch_ki.jsp?energyterm=kJ/mole&tag=pol&polymerid=7773&target=Sterol+O-acyltransferase+2&column=ki&startPg=0&Increment=50&submit=Search

> <Link to Ligand-Target Pair in BindingDB>
http://www.bindingdb.org/jsp/dbsearch/PrimarySearch_ki.jsp?energyterm=kJ/mole&tag=r21&monomerid=50429596&enzyme=Sterol+O-acyltransferase+2&column=ki&startPg=0&Increment=50&submit=Search

> <Ligand HET ID in PDB>


> <PDB ID(s) for Ligand-Target Complex>


> <PubChem CID>
71560927

> <PubChem SID>
164158471

> <ChEBI ID of Ligand>


> <ChEMBL ID of Ligand>
CHEMBL2333813

> <DrugBank ID of Ligand>


> <IUPHAR_GRAC ID of Ligand>


> <KEGG ID of Ligand>


> <ZINC ID of Ligand>
ZINC95591565

> <Number of Protein Chains in Target (>1 implies a multichain complex)>
1

> <BindingDB Target Chain Sequence>
MEPGGARLRLQRTEGLGGERERQPCGDGNTETHRAPDLVQWTRHMEAVKAQLLEQAQGQLRELLDRAMREAIQSYPSQDKPLPPPPPGSLSRTQEPSLGKQKVFIIRKSLLDELMEVQHFRTIYHMFIAGLCVFIISTLAIDFIDEGRLLLEFDLLIFSFGQLPLALVTWVPMFLSTLLAPYQALRLWARGTWTQATGLGCALLAAHAVVLCALPVHVAVEHQLPPASRCVLVFEQVRFLMKSYSFLREAVPGTLRARRGEGIQAPSFSSYLYFLFCPTLIYRETYPRTPYVRWNYVAKNFAQALGCVLYACFILGRLCVPVFANMSREPFSTRALVLSILHATLPGIFMLLLIFFAFLHCWLNAFAEMLRFGDRMFYRDWWNSTSFSNYYRTWNVVVHDWLYSYVYQDGLRLLGARARGVAMLGVFLVSAVAHEYIFCFVLGFFYPVMLILFLVIGGMLNFMMHDQRTGPAWNVLMWTMLFLGQGIQVSLYCQEWYARRHCPLPQATFWGLVTPRSWSCHT

> <PDB ID(s) of Target Chain>


> <UniProt (SwissProt) Recommended Name of Target Chain>
Sterol O-acyltransferase 2

> <UniProt (SwissProt) Entry Name of Target Chain>
ACAT-2

> <UniProt (SwissProt) Primary ID of Target Chain>
O75908

> <UniProt (SwissProt) Secondary ID(s) of Target Chain>
F5H7W4 I6L9H9 Q4VB99 Q4VBA1 Q96TD4 Q9UNR2

> <UniProt (SwissProt) Alternative ID(s) of Target Chain>


> <UniProt (TrEMBL) Submitted Name of Target Chain>


> <UniProt (TrEMBL) Entry Name of Target Chain>


> <UniProt (TrEMBL) Primary ID of Target Chain>


> <UniProt (TrEMBL) Secondary ID(s) of Target Chain>


> <UniProt (TrEMBL) Alternative ID(s) of Target Chain>


$$$$

  Mrv0541 11241417102D          

 48 53  0  0  0  0            999 V2000
    6.8208   -7.9833    0.0000 C   0  0  0  0  0  0  0  0  0  0  0  0
    6.4125   -7.2708    0.0000 C   0  0  2  0  0  0  0  0  0  0  0  0
    5.9996   -7.9807    0.0000 C   0  0  0  0  0  0  0  0  0  0  0  0
    5.7042   -6.0375    0.0000 C   0  0  0  0  0  0  0  0  0  0  0  0
    5.7042   -6.8624    0.0000 C   0  0  2  0  0  0  0  0  0  0  0  0
    6.4162   -5.6208    0.0000 C   0  0  0  0  0  0  0  0  0  0  0  0
    7.1282   -6.0375    0.0000 C   0  0  1  0  0  0  0  0  0  0  0  0
    7.1293   -6.8624    0.0000 C   0  0  1  0  0  0  0  0  0  0  0  0
    7.8403   -7.2718    0.0000 C   0  0  0  0  0  0  0  0  0  0  0  0
    8.5549   -6.8606    0.0000 C   0  0  1  0  0  0  0  0  0  0  0  0
    7.8382   -5.6218    0.0000 C   0  0  2  0  0  0  0  0  0  0  0  0
    8.5534   -6.0403    0.0000 C   0  0  2  0  0  0  0  0  0  0  0  0
    9.2694   -5.6324    0.0000 O   0  0  0  0  0  0  0  0  0  0  0  0
    7.8390   -4.7954    0.0000 C   0  0  2  0  0  0  0  0  0  0  0  0
    8.5613   -4.3859    0.0000 C   0  0  0  0  0  0  0  0  0  0  0  0
    9.2794   -4.8081    0.0000 C   0  0  0  0  0  0  0  0  0  0  0  0
   10.0001   -4.3995    0.0000 C   0  0  0  0  0  0  0  0  0  0  0  0
   10.0089   -3.5672    0.0000 C   0  0  0  0  0  0  0  0  0  0  0  0
    9.2908   -3.1451    0.0000 O   0  0  0  0  0  0  0  0  0  0  0  0
    8.5639   -3.5551    0.0000 C   0  0  0  0  0  0  0  0  0  0  0  0
   10.7228   -3.1629    0.0000 C   0  0  0  0  0  0  0  0  0  0  0  0
   11.4336   -3.5838    0.0000 C   0  0  0  0  0  0  0  0  0  0  0  0
   12.1514   -3.1786    0.0000 N   0  0  0  0  0  0  0  0  0  0  0  0
   12.1595   -2.3528    0.0000 C   0  0  0  0  0  0  0  0  0  0  0  0
   11.4439   -1.9338    0.0000 C   0  0  0  0  0  0  0  0  0  0  0  0
   10.7290   -2.3414    0.0000 C   0  0  0  0  0  0  0  0  0  0  0  0
    7.8521   -3.1381    0.0000 O   0  0  0  0  0  0  0  0  0  0  0  0
    9.2693   -7.2730    0.0000 O   0  0  0  0  0  0  0  0  0  0  0  0
    9.9838   -6.8605    0.0000 C   0  0  0  0  0  0  0  0  0  0  0  0
   10.6983   -7.2729    0.0000 C   0  0  0  0  0  0  0  0  0  0  0  0
    9.9837   -6.0355    0.0000 O   0  0  0  0  0  0  0  0  0  0  0  0
    4.9903   -7.2761    0.0000 O   0  0  0  0  0  0  0  0  0  0  0  0
    4.2753   -6.8646    0.0000 C   0  0  0  0  0  0  0  0  0  0  0  0
    3.5613   -7.2781    0.0000 C   0  0  0  0  0  0  0  0  0  0  0  0
    4.2740   -6.0396    0.0000 O   0  0  0  0  0  0  0  0  0  0  0  0
    6.4060   -8.6965    0.0000 O   0  0  0  0  0  0  0  0  0  0  0  0
    6.8163   -9.4123    0.0000 C   0  0  0  0  0  0  0  0  0  0  0  0
    6.4015  -10.1254    0.0000 C   0  0  0  0  0  0  0  0  0  0  0  0
    7.6412   -9.4149    0.0000 O   0  0  0  0  0  0  0  0  0  0  0  0
    7.1263   -4.3797    0.0000 O   0  0  0  0  0  0  0  0  0  0  0  0
    7.1208   -5.2125    0.0000 C   0  0  0  0  0  0  0  0  0  0  0  0
    8.5458   -5.2125    0.0000 C   0  0  0  0  0  0  0  0  0  0  0  0
   10.6932   -8.0969    0.0000 C   0  0  0  0  0  0  0  0  0  0  0  0
   11.4068   -8.5092    0.0000 C   0  0  0  0  0  0  0  0  0  0  0  0
   12.1222   -8.0966    0.0000 C   0  0  0  0  0  0  0  0  0  0  0  0
   12.1195   -7.2673    0.0000 C   0  0  0  0  0  0  0  0  0  0  0  0
   11.4052   -6.8587    0.0000 C   0  0  0  0  0  0  0  0  0  0  0  0
   11.4009   -6.0337    0.0000 I   0  0  0  0  0  0  0  0  0  0  0  0
  2  1  1  6  0  0  0
  2  3  1  1  0  0  0
  5  4  1  0  0  0  0
  4  6  1  0  0  0  0
  2  5  1  0  0  0  0
  8  2  1  0  0  0  0
  7  6  1  0  0  0  0
  7  8  1  0  0  0  0
 11  7  1  1  0  0  0
  8  9  1  1  0  0  0
 10  9  1  0  0  0  0
 12 10  1  0  0  0  0
 11 12  1  0  0  0  0
 11 14  1  0  0  0  0
 12 13  1  0  0  0  0
 13 16  1  0  0  0  0
 14 15  1  0  0  0  0
 15 16  2  0  0  0  0
 15 20  1  0  0  0  0
 16 17  1  0  0  0  0
 17 18  2  0  0  0  0
 18 19  1  0  0  0  0
 19 20  1  0  0  0  0
 21 22  2  0  0  0  0
 22 23  1  0  0  0  0
 23 24  2  0  0  0  0
 24 25  1  0  0  0  0
 25 26  2  0  0  0  0
 26 21  1  0  0  0  0
 18 21  1  0  0  0  0
 20 27  2  0  0  0  0
 10 28  1  1  0  0  0
 28 29  1  0  0  0  0
 29 30  1  0  0  0  0
 29 31  2  0  0  0  0
  5 32  1  1  0  0  0
 32 33  1  0  0  0  0
 33 34  1  0  0  0  0
 33 35  2  0  0  0  0
  1 36  1  0  0  0  0
 36 37  1  0  0  0  0
 37 38  1  0  0  0  0
 37 39  2  0  0  0  0
 14 40  1  1  0  0  0
  7 41  1  1  0  0  0
 12 42  1  1  0  0  0
 30 43  2  0  0  0  0
 43 44  1  0  0  0  0
 44 45  2  0  0  0  0
 45 46  1  0  0  0  0
 46 47  2  0  0  0  0
 47 30  1  0  0  0  0
 47 48  1  0  0  0  0
M  END
> <From>
www.bindingDB.org

> <BindingDB Reactant_set_id>
51053281

> <Ligand InChI>
InChI=1S/C36H38INO10/c1-19(39)44-18-35(4)26-16-28(47-32(42)22-10-6-7-11-23(22)37)36(5)31(34(26,3)13-12-27(35)45-20(2)40)30(41)29-25(48-36)15-24(46-33(29)43)21-9-8-14-38-17-21/h6-11,14-15,17,26-28,30-31,41H,12-13,16,18H2,1-5H3/t26-,27+,28+,30+,31-,34+,35+,36-/m1/s1

> <Ligand InChI Key>
UUPZDUKOVILMTP-HRSZXCBJSA-N

> <BindingDB MonomerID>
50429591

> <BindingDB Ligand Name>
CHEMBL2334198

> <Target Name>
Sterol O-acyltransferase 2

> <Target Source Organism According to Curator or DataSource>


> <Ki (nM)>


> <IC50 (nM)>
 5.0

> <Kd (nM)>


> <EC50 (nM)>


> <kon (M-1-s-1)>


> <koff (s-1)>


> <pH>


> <Temp (C)>


> <Curation/DataSource>
ChEMBL

> <Article DOI>
10.1016/j.bmcl.2012.12.099

> <BindingDB Entry DOI>
10.7270/Q2P270HW

> <PMID>
23369538

> <PubChem AID>


> <Patent Number>


> <Authors>
Ohtawa, M; Yamazaki, H; Ohte, S; Matsuda, D; Ohshiro, T; Rudel, LL; Omura, S; Tomoda, H; Nagamitsu, T

> <Institution>
Kitasato University

> <Link to Ligand in BindingDB>
http://www.bindingdb.org/bind/chemsearch/marvin/MolStructure.jsp?monomerid=50429591

> <Link to Target in BindingDB>
http://www.bindingdb.org/jsp/dbsearch/PrimarySearch_ki.jsp?energyterm=kJ/mole&tag=pol&polymerid=7773&target=Sterol+O-acyltransferase+2&column=ki&startPg=0&Increment=50&submit=Search

> <Link to Ligand-Target Pair in BindingDB>
http://www.bindingdb.org/jsp/dbsearch/PrimarySearch_ki.jsp?energyterm=kJ/mole&tag=r21&monomerid=50429591&enzyme=Sterol+O-acyltransferase+2&column=ki&startPg=0&Increment=50&submit=Search

> <Ligand HET ID in PDB>


> <PDB ID(s) for Ligand-Target Complex>


> <PubChem CID>
71561175

> <PubChem SID>
164158466

> <ChEBI ID of Ligand>


> <ChEMBL ID of Ligand>
CHEMBL2334198

> <DrugBank ID of Ligand>


> <IUPHAR_GRAC ID of Ligand>


> <KEGG ID of Ligand>


> <ZINC ID of Ligand>
ZINC95592242

> <Number of Protein Chains in Target (>1 implies a multichain complex)>
1

> <BindingDB Target Chain Sequence>
MEPGGARLRLQRTEGLGGERERQPCGDGNTETHRAPDLVQWTRHMEAVKAQLLEQAQGQLRELLDRAMREAIQSYPSQDKPLPPPPPGSLSRTQEPSLGKQKVFIIRKSLLDELMEVQHFRTIYHMFIAGLCVFIISTLAIDFIDEGRLLLEFDLLIFSFGQLPLALVTWVPMFLSTLLAPYQALRLWARGTWTQATGLGCALLAAHAVVLCALPVHVAVEHQLPPASRCVLVFEQVRFLMKSYSFLREAVPGTLRARRGEGIQAPSFSSYLYFLFCPTLIYRETYPRTPYVRWNYVAKNFAQALGCVLYACFILGRLCVPVFANMSREPFSTRALVLSILHATLPGIFMLLLIFFAFLHCWLNAFAEMLRFGDRMFYRDWWNSTSFSNYYRTWNVVVHDWLYSYVYQDGLRLLGARARGVAMLGVFLVSAVAHEYIFCFVLGFFYPVMLILFLVIGGMLNFMMHDQRTGPAWNVLMWTMLFLGQGIQVSLYCQEWYARRHCPLPQATFWGLVTPRSWSCHT

> <PDB ID(s) of Target Chain>


> <UniProt (SwissProt) Recommended Name of Target Chain>
Sterol O-acyltransferase 2

> <UniProt (SwissProt) Entry Name of Target Chain>
ACAT-2

> <UniProt (SwissProt) Primary ID of Target Chain>
O75908

> <UniProt (SwissProt) Secondary ID(s) of Target Chain>
F5H7W4 I6L9H9 Q4VB99 Q4VBA1 Q96TD4 Q9UNR2

> <UniProt (SwissProt) Alternative ID(s) of Target Chain>


> <UniProt (TrEMBL) Submitted Name of Target Chain>


> <UniProt (TrEMBL) Entry Name of Target Chain>


> <UniProt (TrEMBL) Primary ID of Target Chain>


> <UniProt (TrEMBL) Secondary ID(s) of Target Chain>


> <UniProt (TrEMBL) Alternative ID(s) of Target Chain>


$$$$

  Mrv0541 11241417102D          

 50 55  0  0  0  0            999 V2000
   16.2040   -7.8958    0.0000 C   0  0  0  0  0  0  0  0  0  0  0  0
   15.7956   -7.1832    0.0000 C   0  0  2  0  0  0  0  0  0  0  0  0
   15.3828   -7.8931    0.0000 C   0  0  0  0  0  0  0  0  0  0  0  0
   15.0873   -5.9500    0.0000 C   0  0  0  0  0  0  0  0  0  0  0  0
   15.0873   -6.7750    0.0000 C   0  0  2  0  0  0  0  0  0  0  0  0
   15.7994   -5.5333    0.0000 C   0  0  0  0  0  0  0  0  0  0  0  0
   16.5114   -5.9500    0.0000 C   0  0  1  0  0  0  0  0  0  0  0  0
   16.5124   -6.7750    0.0000 C   0  0  1  0  0  0  0  0  0  0  0  0
   17.2234   -7.1842    0.0000 C   0  0  0  0  0  0  0  0  0  0  0  0
   17.9380   -6.7731    0.0000 C   0  0  1  0  0  0  0  0  0  0  0  0
   17.2213   -5.5342    0.0000 C   0  0  2  0  0  0  0  0  0  0  0  0
   17.9366   -5.9528    0.0000 C   0  0  2  0  0  0  0  0  0  0  0  0
   18.6527   -5.5448    0.0000 O   0  0  0  0  0  0  0  0  0  0  0  0
   17.2221   -4.7079    0.0000 C   0  0  2  0  0  0  0  0  0  0  0  0
   17.9445   -4.2983    0.0000 C   0  0  0  0  0  0  0  0  0  0  0  0
   18.6625   -4.7205    0.0000 C   0  0  0  0  0  0  0  0  0  0  0  0
   19.3833   -4.3120    0.0000 C   0  0  0  0  0  0  0  0  0  0  0  0
   19.3921   -3.4797    0.0000 C   0  0  0  0  0  0  0  0  0  0  0  0
   18.6741   -3.0575    0.0000 O   0  0  0  0  0  0  0  0  0  0  0  0
   17.9471   -3.4677    0.0000 C   0  0  0  0  0  0  0  0  0  0  0  0
   20.1059   -3.0754    0.0000 C   0  0  0  0  0  0  0  0  0  0  0  0
   20.8167   -3.4963    0.0000 C   0  0  0  0  0  0  0  0  0  0  0  0
   21.5345   -3.0911    0.0000 N   0  0  0  0  0  0  0  0  0  0  0  0
   21.5426   -2.2652    0.0000 C   0  0  0  0  0  0  0  0  0  0  0  0
   20.8270   -1.8463    0.0000 C   0  0  0  0  0  0  0  0  0  0  0  0
   20.1122   -2.2538    0.0000 C   0  0  0  0  0  0  0  0  0  0  0  0
   17.2353   -3.0505    0.0000 O   0  0  0  0  0  0  0  0  0  0  0  0
   18.6526   -7.1855    0.0000 O   0  0  0  0  0  0  0  0  0  0  0  0
   19.3669   -6.7729    0.0000 C   0  0  0  0  0  0  0  0  0  0  0  0
   20.0815   -7.1853    0.0000 C   0  0  0  0  0  0  0  0  0  0  0  0
   19.3668   -5.9479    0.0000 O   0  0  0  0  0  0  0  0  0  0  0  0
   14.3735   -7.1885    0.0000 O   0  0  0  0  0  0  0  0  0  0  0  0
   13.6584   -6.7770    0.0000 C   0  0  0  0  0  0  0  0  0  0  0  0
   12.9446   -7.1906    0.0000 C   0  0  0  0  0  0  0  0  0  0  0  0
   13.6572   -5.9520    0.0000 O   0  0  0  0  0  0  0  0  0  0  0  0
   15.7892   -8.6089    0.0000 O   0  0  0  0  0  0  0  0  0  0  0  0
   16.1995   -9.3247    0.0000 C   0  0  0  0  0  0  0  0  0  0  0  0
   15.7846  -10.0378    0.0000 C   0  0  0  0  0  0  0  0  0  0  0  0
   17.0245   -9.3273    0.0000 O   0  0  0  0  0  0  0  0  0  0  0  0
   16.5096   -4.2923    0.0000 O   0  0  0  0  0  0  0  0  0  0  0  0
   16.5040   -5.1250    0.0000 C   0  0  0  0  0  0  0  0  0  0  0  0
   17.9290   -5.1250    0.0000 C   0  0  0  0  0  0  0  0  0  0  0  0
   20.0763   -8.0093    0.0000 C   0  0  0  0  0  0  0  0  0  0  0  0
   20.7900   -8.4216    0.0000 C   0  0  0  0  0  0  0  0  0  0  0  0
   21.5053   -8.0090    0.0000 C   0  0  0  0  0  0  0  0  0  0  0  0
   21.5026   -7.1798    0.0000 C   0  0  0  0  0  0  0  0  0  0  0  0
   20.7883   -6.7711    0.0000 C   0  0  0  0  0  0  0  0  0  0  0  0
   22.2204   -8.4204    0.0000 N   0  0  0  0  0  0  0  0  0  0  0  0
   22.9338   -8.8260    0.0000 N   0  3  0  0  0  0  0  0  0  0  0  0
   23.6471   -9.2302    0.0000 N   0  5  0  0  0  0  0  0  0  0  0  0
  2  1  1  6  0  0  0
  2  3  1  1  0  0  0
  5  4  1  0  0  0  0
  4  6  1  0  0  0  0
  2  5  1  0  0  0  0
  8  2  1  0  0  0  0
  7  6  1  0  0  0  0
  7  8  1  0  0  0  0
 11  7  1  1  0  0  0
  8  9  1  1  0  0  0
 10  9  1  0  0  0  0
 12 10  1  0  0  0  0
 11 12  1  0  0  0  0
 11 14  1  0  0  0  0
 12 13  1  0  0  0  0
 13 16  1  0  0  0  0
 14 15  1  0  0  0  0
 15 16  2  0  0  0  0
 15 20  1  0  0  0  0
 16 17  1  0  0  0  0
 17 18  2  0  0  0  0
 18 19  1  0  0  0  0
 19 20  1  0  0  0  0
 21 22  2  0  0  0  0
 22 23  1  0  0  0  0
 23 24  2  0  0  0  0
 24 25  1  0  0  0  0
 25 26  2  0  0  0  0
 26 21  1  0  0  0  0
 18 21  1  0  0  0  0
 20 27  2  0  0  0  0
 10 28  1  1  0  0  0
 28 29  1  0  0  0  0
 29 30  1  0  0  0  0
 29 31  2  0  0  0  0
  5 32  1  1  0  0  0
 32 33  1  0  0  0  0
 33 34  1  0  0  0  0
 33 35  2  0  0  0  0
  1 36  1  0  0  0  0
 36 37  1  0  0  0  0
 37 38  1  0  0  0  0
 37 39  2  0  0  0  0
 14 40  1  1  0  0  0
  7 41  1  1  0  0  0
 12 42  1  1  0  0  0
 30 43  2  0  0  0  0
 43 44  1  0  0  0  0
 44 45  2  0  0  0  0
 45 46  1  0  0  0  0
 46 47  2  0  0  0  0
 47 30  1  0  0  0  0
 45 48  1  0  0  0  0
 48 49  2  0  0  0  0
 49 50  2  0  0  0  0
M  CHG  2  49   1  50  -1
M  END
> <From>
www.bindingDB.org

> <BindingDB Reactant_set_id>
51053280

> <Ligand InChI>
InChI=1S/C36H38N4O10/c1-19(41)46-18-35(4)26-16-28(49-32(44)21-8-10-23(11-9-21)39-40-37)36(5)31(34(26,3)13-12-27(35)47-20(2)42)30(43)29-25(50-36)15-24(48-33(29)45)22-7-6-14-38-17-22/h6-11,14-15,17,26-28,30-31,43H,12-13,16,18H2,1-5H3/t26-,27+,28+,30+,31-,34+,35+,36-/m1/s1

> <Ligand InChI Key>
AZOMFKVUQUDYHA-HRSZXCBJSA-N

> <BindingDB MonomerID>
50429590

> <BindingDB Ligand Name>
CHEMBL2334199

> <Target Name>
Sterol O-acyltransferase 2

> <Target Source Organism According to Curator or DataSource>


> <Ki (nM)>


> <IC50 (nM)>
 5.0

> <Kd (nM)>


> <EC50 (nM)>


> <kon (M-1-s-1)>


> <koff (s-1)>


> <pH>


> <Temp (C)>


> <Curation/DataSource>
ChEMBL

> <Article DOI>
10.1016/j.bmcl.2012.12.099

> <BindingDB Entry DOI>
10.7270/Q2P270HW

> <PMID>
23369538

> <PubChem AID>


> <Patent Number>


> <Authors>
Ohtawa, M; Yamazaki, H; Ohte, S; Matsuda, D; Ohshiro, T; Rudel, LL; Omura, S; Tomoda, H; Nagamitsu, T

> <Institution>
Kitasato University

> <Link to Ligand in BindingDB>
http://www.bindingdb.org/bind/chemsearch/marvin/MolStructure.jsp?monomerid=50429590

> <Link to Target in BindingDB>
http://www.bindingdb.org/jsp/dbsearch/PrimarySearch_ki.jsp?energyterm=kJ/mole&tag=pol&polymerid=7773&target=Sterol+O-acyltransferase+2&column=ki&startPg=0&Increment=50&submit=Search

> <Link to Ligand-Target Pair in BindingDB>
http://www.bindingdb.org/jsp/dbsearch/PrimarySearch_ki.jsp?energyterm=kJ/mole&tag=r21&monomerid=50429590&enzyme=Sterol+O-acyltransferase+2&column=ki&startPg=0&Increment=50&submit=Search

> <Ligand HET ID in PDB>


> <PDB ID(s) for Ligand-Target Complex>


> <PubChem CID>
10770868

> <PubChem SID>
164158465

> <ChEBI ID of Ligand>


> <ChEMBL ID of Ligand>
CHEMBL2334199

> <DrugBank ID of Ligand>


> <IUPHAR_GRAC ID of Ligand>


> <KEGG ID of Ligand>


> <ZINC ID of Ligand>
ZINC95592574

> <Number of Protein Chains in Target (>1 implies a multichain complex)>
1

> <BindingDB Target Chain Sequence>
MEPGGARLRLQRTEGLGGERERQPCGDGNTETHRAPDLVQWTRHMEAVKAQLLEQAQGQLRELLDRAMREAIQSYPSQDKPLPPPPPGSLSRTQEPSLGKQKVFIIRKSLLDELMEVQHFRTIYHMFIAGLCVFIISTLAIDFIDEGRLLLEFDLLIFSFGQLPLALVTWVPMFLSTLLAPYQALRLWARGTWTQATGLGCALLAAHAVVLCALPVHVAVEHQLPPASRCVLVFEQVRFLMKSYSFLREAVPGTLRARRGEGIQAPSFSSYLYFLFCPTLIYRETYPRTPYVRWNYVAKNFAQALGCVLYACFILGRLCVPVFANMSREPFSTRALVLSILHATLPGIFMLLLIFFAFLHCWLNAFAEMLRFGDRMFYRDWWNSTSFSNYYRTWNVVVHDWLYSYVYQDGLRLLGARARGVAMLGVFLVSAVAHEYIFCFVLGFFYPVMLILFLVIGGMLNFMMHDQRTGPAWNVLMWTMLFLGQGIQVSLYCQEWYARRHCPLPQATFWGLVTPRSWSCHT

> <PDB ID(s) of Target Chain>


> <UniProt (SwissProt) Recommended Name of Target Chain>
Sterol O-acyltransferase 2

> <UniProt (SwissProt) Entry Name of Target Chain>
ACAT-2

> <UniProt (SwissProt) Primary ID of Target Chain>
O75908

> <UniProt (SwissProt) Secondary ID(s) of Target Chain>
F5H7W4 I6L9H9 Q4VB99 Q4VBA1 Q96TD4 Q9UNR2

> <UniProt (SwissProt) Alternative ID(s) of Target Chain>


> <UniProt (TrEMBL) Submitted Name of Target Chain>


> <UniProt (TrEMBL) Entry Name of Target Chain>


> <UniProt (TrEMBL) Primary ID of Target Chain>


> <UniProt (TrEMBL) Secondary ID(s) of Target Chain>


> <UniProt (TrEMBL) Alternative ID(s) of Target Chain>


$$$$

  Mrv0541 11241417102D          

 48 53  0  0  0  0            999 V2000
   22.1799  -12.8046    0.0000 C   0  0  0  0  0  0  0  0  0  0  0  0
   21.7716  -12.0920    0.0000 C   0  0  2  0  0  0  0  0  0  0  0  0
   21.3587  -12.8020    0.0000 C   0  0  0  0  0  0  0  0  0  0  0  0
   21.0632  -10.8587    0.0000 C   0  0  0  0  0  0  0  0  0  0  0  0
   21.0632  -11.6837    0.0000 C   0  0  2  0  0  0  0  0  0  0  0  0
   21.7752  -10.4420    0.0000 C   0  0  0  0  0  0  0  0  0  0  0  0
   22.4873  -10.8587    0.0000 C   0  0  1  0  0  0  0  0  0  0  0  0
   22.4883  -11.6837    0.0000 C   0  0  1  0  0  0  0  0  0  0  0  0
   23.1994  -12.0931    0.0000 C   0  0  0  0  0  0  0  0  0  0  0  0
   23.9140  -11.6819    0.0000 C   0  0  1  0  0  0  0  0  0  0  0  0
   23.1973  -10.4430    0.0000 C   0  0  2  0  0  0  0  0  0  0  0  0
   23.9125  -10.8615    0.0000 C   0  0  2  0  0  0  0  0  0  0  0  0
   24.6286  -10.4536    0.0000 O   0  0  0  0  0  0  0  0  0  0  0  0
   23.1981   -9.6166    0.0000 C   0  0  2  0  0  0  0  0  0  0  0  0
   23.9205   -9.2070    0.0000 C   0  0  0  0  0  0  0  0  0  0  0  0
   24.6386   -9.6293    0.0000 C   0  0  0  0  0  0  0  0  0  0  0  0
   25.3593   -9.2207    0.0000 C   0  0  0  0  0  0  0  0  0  0  0  0
   25.3681   -8.3883    0.0000 C   0  0  0  0  0  0  0  0  0  0  0  0
   24.6500   -7.9662    0.0000 O   0  0  0  0  0  0  0  0  0  0  0  0
   23.9230   -8.3763    0.0000 C   0  0  0  0  0  0  0  0  0  0  0  0
   26.0819   -7.9840    0.0000 C   0  0  0  0  0  0  0  0  0  0  0  0
   26.7929   -8.4049    0.0000 C   0  0  0  0  0  0  0  0  0  0  0  0
   27.5107   -7.9997    0.0000 N   0  0  0  0  0  0  0  0  0  0  0  0
   27.5188   -7.1738    0.0000 C   0  0  0  0  0  0  0  0  0  0  0  0
   26.8031   -6.7549    0.0000 C   0  0  0  0  0  0  0  0  0  0  0  0
   26.0882   -7.1624    0.0000 C   0  0  0  0  0  0  0  0  0  0  0  0
   23.2113   -7.9592    0.0000 O   0  0  0  0  0  0  0  0  0  0  0  0
   24.6285  -12.0943    0.0000 O   0  0  0  0  0  0  0  0  0  0  0  0
   25.3430  -11.6818    0.0000 C   0  0  0  0  0  0  0  0  0  0  0  0
   26.0575  -12.0942    0.0000 C   0  0  0  0  0  0  0  0  0  0  0  0
   25.3429  -10.8567    0.0000 O   0  0  0  0  0  0  0  0  0  0  0  0
   20.3493  -12.0973    0.0000 O   0  0  0  0  0  0  0  0  0  0  0  0
   19.6342  -11.6858    0.0000 C   0  0  0  0  0  0  0  0  0  0  0  0
   18.9203  -12.0993    0.0000 C   0  0  0  0  0  0  0  0  0  0  0  0
   19.6330  -10.8608    0.0000 O   0  0  0  0  0  0  0  0  0  0  0  0
   21.7651  -13.5178    0.0000 O   0  0  0  0  0  0  0  0  0  0  0  0
   22.1753  -14.2336    0.0000 C   0  0  0  0  0  0  0  0  0  0  0  0
   21.7606  -14.9468    0.0000 C   0  0  0  0  0  0  0  0  0  0  0  0
   23.0004  -14.2362    0.0000 O   0  0  0  0  0  0  0  0  0  0  0  0
   22.4855   -9.2009    0.0000 O   0  0  0  0  0  0  0  0  0  0  0  0
   22.4799  -10.0337    0.0000 C   0  0  0  0  0  0  0  0  0  0  0  0
   23.9049  -10.0337    0.0000 C   0  0  0  0  0  0  0  0  0  0  0  0
   26.0523  -12.9182    0.0000 C   0  0  0  0  0  0  0  0  0  0  0  0
   26.7660  -13.3305    0.0000 C   0  0  0  0  0  0  0  0  0  0  0  0
   27.4815  -12.9179    0.0000 C   0  0  0  0  0  0  0  0  0  0  0  0
   27.4787  -12.0885    0.0000 C   0  0  0  0  0  0  0  0  0  0  0  0
   26.7644  -11.6799    0.0000 C   0  0  0  0  0  0  0  0  0  0  0  0
   28.1918  -11.6735    0.0000 I   0  0  0  0  0  0  0  0  0  0  0  0
  2  1  1  6  0  0  0
  2  3  1  1  0  0  0
  5  4  1  0  0  0  0
  4  6  1  0  0  0  0
  2  5  1  0  0  0  0
  8  2  1  0  0  0  0
  7  6  1  0  0  0  0
  7  8  1  0  0  0  0
 11  7  1  1  0  0  0
  8  9  1  1  0  0  0
 10  9  1  0  0  0  0
 12 10  1  0  0  0  0
 11 12  1  0  0  0  0
 11 14  1  0  0  0  0
 12 13  1  0  0  0  0
 13 16  1  0  0  0  0
 14 15  1  0  0  0  0
 15 16  2  0  0  0  0
 15 20  1  0  0  0  0
 16 17  1  0  0  0  0
 17 18  2  0  0  0  0
 18 19  1  0  0  0  0
 19 20  1  0  0  0  0
 21 22  2  0  0  0  0
 22 23  1  0  0  0  0
 23 24  2  0  0  0  0
 24 25  1  0  0  0  0
 25 26  2  0  0  0  0
 26 21  1  0  0  0  0
 18 21  1  0  0  0  0
 20 27  2  0  0  0  0
 10 28  1  1  0  0  0
 28 29  1  0  0  0  0
 29 30  1  0  0  0  0
 29 31  2  0  0  0  0
  5 32  1  1  0  0  0
 32 33  1  0  0  0  0
 33 34  1  0  0  0  0
 33 35  2  0  0  0  0
  1 36  1  0  0  0  0
 36 37  1  0  0  0  0
 37 38  1  0  0  0  0
 37 39  2  0  0  0  0
 14 40  1  1  0  0  0
  7 41  1  1  0  0  0
 12 42  1  1  0  0  0
 30 43  2  0  0  0  0
 43 44  1  0  0  0  0
 44 45  2  0  0  0  0
 45 46  1  0  0  0  0
 46 47  2  0  0  0  0
 47 30  1  0  0  0  0
 46 48  1  0  0  0  0
M  END
> <From>
www.bindingDB.org

> <BindingDB Reactant_set_id>
51053282

> <Ligand InChI>
InChI=1S/C36H38INO10/c1-19(39)44-18-35(4)26-16-28(47-32(42)21-8-6-10-23(37)14-21)36(5)31(34(26,3)12-11-27(35)45-20(2)40)30(41)29-25(48-36)15-24(46-33(29)43)22-9-7-13-38-17-22/h6-10,13-15,17,26-28,30-31,41H,11-12,16,18H2,1-5H3/t26-,27+,28+,30+,31-,34+,35+,36-/m1/s1

> <Ligand InChI Key>
TXBBZSIJDCYPFL-HRSZXCBJSA-N

> <BindingDB MonomerID>
50429592

> <BindingDB Ligand Name>
CHEMBL2334197

> <Target Name>
Sterol O-acyltransferase 2

> <Target Source Organism According to Curator or DataSource>


> <Ki (nM)>


> <IC50 (nM)>
 5.0

> <Kd (nM)>


> <EC50 (nM)>


> <kon (M-1-s-1)>


> <koff (s-1)>


> <pH>


> <Temp (C)>


> <Curation/DataSource>
ChEMBL

> <Article DOI>
10.1016/j.bmcl.2012.12.099

> <BindingDB Entry DOI>
10.7270/Q2P270HW

> <PMID>
23369538

> <PubChem AID>


> <Patent Number>


> <Authors>
Ohtawa, M; Yamazaki, H; Ohte, S; Matsuda, D; Ohshiro, T; Rudel, LL; Omura, S; Tomoda, H; Nagamitsu, T

> <Institution>
Kitasato University

> <Link to Ligand in BindingDB>
http://www.bindingdb.org/bind/chemsearch/marvin/MolStructure.jsp?monomerid=50429592

> <Link to Target in BindingDB>
http://www.bindingdb.org/jsp/dbsearch/PrimarySearch_ki.jsp?energyterm=kJ/mole&tag=pol&polymerid=7773&target=Sterol+O-acyltransferase+2&column=ki&startPg=0&Increment=50&submit=Search

> <Link to Ligand-Target Pair in BindingDB>
http://www.bindingdb.org/jsp/dbsearch/PrimarySearch_ki.jsp?energyterm=kJ/mole&tag=r21&monomerid=50429592&enzyme=Sterol+O-acyltransferase+2&column=ki&startPg=0&Increment=50&submit=Search

> <Ligand HET ID in PDB>


> <PDB ID(s) for Ligand-Target Complex>


> <PubChem CID>
71561057

> <PubChem SID>
164158467

> <ChEBI ID of Ligand>


> <ChEMBL ID of Ligand>
CHEMBL2334197

> <DrugBank ID of Ligand>


> <IUPHAR_GRAC ID of Ligand>


> <KEGG ID of Ligand>


> <ZINC ID of Ligand>
ZINC95587595

> <Number of Protein Chains in Target (>1 implies a multichain complex)>
1

> <BindingDB Target Chain Sequence>
MEPGGARLRLQRTEGLGGERERQPCGDGNTETHRAPDLVQWTRHMEAVKAQLLEQAQGQLRELLDRAMREAIQSYPSQDKPLPPPPPGSLSRTQEPSLGKQKVFIIRKSLLDELMEVQHFRTIYHMFIAGLCVFIISTLAIDFIDEGRLLLEFDLLIFSFGQLPLALVTWVPMFLSTLLAPYQALRLWARGTWTQATGLGCALLAAHAVVLCALPVHVAVEHQLPPASRCVLVFEQVRFLMKSYSFLREAVPGTLRARRGEGIQAPSFSSYLYFLFCPTLIYRETYPRTPYVRWNYVAKNFAQALGCVLYACFILGRLCVPVFANMSREPFSTRALVLSILHATLPGIFMLLLIFFAFLHCWLNAFAEMLRFGDRMFYRDWWNSTSFSNYYRTWNVVVHDWLYSYVYQDGLRLLGARARGVAMLGVFLVSAVAHEYIFCFVLGFFYPVMLILFLVIGGMLNFMMHDQRTGPAWNVLMWTMLFLGQGIQVSLYCQEWYARRHCPLPQATFWGLVTPRSWSCHT

> <PDB ID(s) of Target Chain>


> <UniProt (SwissProt) Recommended Name of Target Chain>
Sterol O-acyltransferase 2

> <UniProt (SwissProt) Entry Name of Target Chain>
ACAT-2

> <UniProt (SwissProt) Primary ID of Target Chain>
O75908

> <UniProt (SwissProt) Secondary ID(s) of Target Chain>
F5H7W4 I6L9H9 Q4VB99 Q4VBA1 Q96TD4 Q9UNR2

> <UniProt (SwissProt) Alternative ID(s) of Target Chain>


> <UniProt (TrEMBL) Submitted Name of Target Chain>


> <UniProt (TrEMBL) Entry Name of Target Chain>


> <UniProt (TrEMBL) Primary ID of Target Chain>


> <UniProt (TrEMBL) Secondary ID(s) of Target Chain>


> <UniProt (TrEMBL) Alternative ID(s) of Target Chain>


$$$$

  Mrv0541 11241417102D          

 49 54  0  0  0  0            999 V2000
    3.9376   -8.6753    0.0000 C   0  0  0  0  0  0  0  0  0  0  0  0
    3.5293   -7.9627    0.0000 C   0  0  2  0  0  0  0  0  0  0  0  0
    3.1164   -8.6726    0.0000 C   0  0  0  0  0  0  0  0  0  0  0  0
    2.8209   -6.7294    0.0000 C   0  0  0  0  0  0  0  0  0  0  0  0
    2.8209   -7.5544    0.0000 C   0  0  2  0  0  0  0  0  0  0  0  0
    3.5329   -6.3127    0.0000 C   0  0  0  0  0  0  0  0  0  0  0  0
    4.2450   -6.7294    0.0000 C   0  0  1  0  0  0  0  0  0  0  0  0
    4.2460   -7.5544    0.0000 C   0  0  1  0  0  0  0  0  0  0  0  0
    4.9572   -7.9637    0.0000 C   0  0  0  0  0  0  0  0  0  0  0  0
    5.6716   -7.5526    0.0000 C   0  0  1  0  0  0  0  0  0  0  0  0
    4.9550   -6.3136    0.0000 C   0  0  2  0  0  0  0  0  0  0  0  0
    5.6702   -6.7321    0.0000 C   0  0  2  0  0  0  0  0  0  0  0  0
    6.3863   -6.3242    0.0000 O   0  0  0  0  0  0  0  0  0  0  0  0
    4.9559   -5.4873    0.0000 C   0  0  2  0  0  0  0  0  0  0  0  0
    5.6782   -5.0777    0.0000 C   0  0  0  0  0  0  0  0  0  0  0  0
    6.3963   -5.4999    0.0000 C   0  0  0  0  0  0  0  0  0  0  0  0
    7.1170   -5.0913    0.0000 C   0  0  0  0  0  0  0  0  0  0  0  0
    7.1259   -4.2590    0.0000 C   0  0  0  0  0  0  0  0  0  0  0  0
    6.4077   -3.8368    0.0000 O   0  0  0  0  0  0  0  0  0  0  0  0
    5.6807   -4.2470    0.0000 C   0  0  0  0  0  0  0  0  0  0  0  0
    7.8396   -3.8547    0.0000 C   0  0  0  0  0  0  0  0  0  0  0  0
    8.5506   -4.2756    0.0000 C   0  0  0  0  0  0  0  0  0  0  0  0
    9.2684   -3.8703    0.0000 N   0  0  0  0  0  0  0  0  0  0  0  0
    9.2765   -3.0445    0.0000 C   0  0  0  0  0  0  0  0  0  0  0  0
    8.5608   -2.6255    0.0000 C   0  0  0  0  0  0  0  0  0  0  0  0
    7.8459   -3.0331    0.0000 C   0  0  0  0  0  0  0  0  0  0  0  0
    4.9690   -3.8299    0.0000 O   0  0  0  0  0  0  0  0  0  0  0  0
    6.3862   -7.9650    0.0000 O   0  0  0  0  0  0  0  0  0  0  0  0
    7.1007   -7.5524    0.0000 C   0  0  0  0  0  0  0  0  0  0  0  0
    7.8152   -7.9648    0.0000 C   0  0  0  0  0  0  0  0  0  0  0  0
    7.1006   -6.7274    0.0000 O   0  0  0  0  0  0  0  0  0  0  0  0
    2.1070   -7.9679    0.0000 O   0  0  0  0  0  0  0  0  0  0  0  0
    1.3919   -7.5564    0.0000 C   0  0  0  0  0  0  0  0  0  0  0  0
    0.6780   -7.9700    0.0000 C   0  0  0  0  0  0  0  0  0  0  0  0
    1.3907   -6.7314    0.0000 O   0  0  0  0  0  0  0  0  0  0  0  0
    3.5228   -9.3884    0.0000 O   0  0  0  0  0  0  0  0  0  0  0  0
    3.9330  -10.1042    0.0000 C   0  0  0  0  0  0  0  0  0  0  0  0
    3.5183  -10.8174    0.0000 C   0  0  0  0  0  0  0  0  0  0  0  0
    4.7581  -10.1069    0.0000 O   0  0  0  0  0  0  0  0  0  0  0  0
    4.2432   -5.0717    0.0000 O   0  0  0  0  0  0  0  0  0  0  0  0
    4.2376   -5.9044    0.0000 C   0  0  0  0  0  0  0  0  0  0  0  0
    5.6627   -5.9044    0.0000 C   0  0  0  0  0  0  0  0  0  0  0  0
    7.8100   -8.7888    0.0000 C   0  0  0  0  0  0  0  0  0  0  0  0
    8.5237   -9.2012    0.0000 C   0  0  0  0  0  0  0  0  0  0  0  0
    9.2392   -8.7885    0.0000 C   0  0  0  0  0  0  0  0  0  0  0  0
    9.2364   -7.9593    0.0000 C   0  0  0  0  0  0  0  0  0  0  0  0
    8.5221   -7.5506    0.0000 C   0  0  0  0  0  0  0  0  0  0  0  0
    9.9494   -7.5441    0.0000 F   0  0  0  0  0  0  0  0  0  0  0  0
    9.9543   -9.1999    0.0000 Br  0  0  0  0  0  0  0  0  0  0  0  0
  2  1  1  6  0  0  0
  2  3  1  1  0  0  0
  5  4  1  0  0  0  0
  4  6  1  0  0  0  0
  2  5  1  0  0  0  0
  8  2  1  0  0  0  0
  7  6  1  0  0  0  0
  7  8  1  0  0  0  0
 11  7  1  1  0  0  0
  8  9  1  1  0  0  0
 10  9  1  0  0  0  0
 12 10  1  0  0  0  0
 11 12  1  0  0  0  0
 11 14  1  0  0  0  0
 12 13  1  0  0  0  0
 13 16  1  0  0  0  0
 14 15  1  0  0  0  0
 15 16  2  0  0  0  0
 15 20  1  0  0  0  0
 16 17  1  0  0  0  0
 17 18  2  0  0  0  0
 18 19  1  0  0  0  0
 19 20  1  0  0  0  0
 21 22  2  0  0  0  0
 22 23  1  0  0  0  0
 23 24  2  0  0  0  0
 24 25  1  0  0  0  0
 25 26  2  0  0  0  0
 26 21  1  0  0  0  0
 18 21  1  0  0  0  0
 20 27  2  0  0  0  0
 10 28  1  1  0  0  0
 28 29  1  0  0  0  0
 29 30  1  0  0  0  0
 29 31  2  0  0  0  0
  5 32  1  1  0  0  0
 32 33  1  0  0  0  0
 33 34  1  0  0  0  0
 33 35  2  0  0  0  0
  1 36  1  0  0  0  0
 36 37  1  0  0  0  0
 37 38  1  0  0  0  0
 37 39  2  0  0  0  0
 14 40  1  1  0  0  0
  7 41  1  1  0  0  0
 12 42  1  1  0  0  0
 30 43  2  0  0  0  0
 43 44  1  0  0  0  0
 44 45  2  0  0  0  0
 45 46  1  0  0  0  0
 46 47  2  0  0  0  0
 47 30  1  0  0  0  0
 46 48  1  0  0  0  0
 45 49  1  0  0  0  0
M  END
> <From>
www.bindingDB.org

> <BindingDB Reactant_set_id>
51053267

> <Ligand InChI>
InChI=1S/C36H37BrFNO10/c1-18(40)45-17-35(4)26-15-28(48-32(43)20-8-9-22(37)23(38)13-20)36(5)31(34(26,3)11-10-27(35)46-19(2)41)30(42)29-25(49-36)14-24(47-33(29)44)21-7-6-12-39-16-21/h6-9,12-14,16,26-28,30-31,42H,10-11,15,17H2,1-5H3/t26-,27+,28+,30+,31-,34+,35+,36-/m1/s1

> <Ligand InChI Key>
PHNIMSUCQHMIRC-HRSZXCBJSA-N

> <BindingDB MonomerID>
50429577

> <BindingDB Ligand Name>
CHEMBL2334212

> <Target Name>
Sterol O-acyltransferase 2

> <Target Source Organism According to Curator or DataSource>


> <Ki (nM)>


> <IC50 (nM)>
 5.0

> <Kd (nM)>


> <EC50 (nM)>


> <kon (M-1-s-1)>


> <koff (s-1)>


> <pH>


> <Temp (C)>


> <Curation/DataSource>
ChEMBL

> <Article DOI>
10.1016/j.bmcl.2012.12.099

> <BindingDB Entry DOI>
10.7270/Q2P270HW

> <PMID>
23369538

> <PubChem AID>


> <Patent Number>


> <Authors>
Ohtawa, M; Yamazaki, H; Ohte, S; Matsuda, D; Ohshiro, T; Rudel, LL; Omura, S; Tomoda, H; Nagamitsu, T

> <Institution>
Kitasato University

> <Link to Ligand in BindingDB>
http://www.bindingdb.org/bind/chemsearch/marvin/MolStructure.jsp?monomerid=50429577

> <Link to Target in BindingDB>
http://www.bindingdb.org/jsp/dbsearch/PrimarySearch_ki.jsp?energyterm=kJ/mole&tag=pol&polymerid=7773&target=Sterol+O-acyltransferase+2&column=ki&startPg=0&Increment=50&submit=Search

> <Link to Ligand-Target Pair in BindingDB>
http://www.bindingdb.org/jsp/dbsearch/PrimarySearch_ki.jsp?energyterm=kJ/mole&tag=r21&monomerid=50429577&enzyme=Sterol+O-acyltransferase+2&column=ki&startPg=0&Increment=50&submit=Search

> <Ligand HET ID in PDB>


> <PDB ID(s) for Ligand-Target Complex>


> <PubChem CID>
71559438

> <PubChem SID>
164158452

> <ChEBI ID of Ligand>


> <ChEMBL ID of Ligand>
CHEMBL2334212

> <DrugBank ID of Ligand>


> <IUPHAR_GRAC ID of Ligand>


> <KEGG ID of Ligand>


> <ZINC ID of Ligand>
ZINC95586955

> <Number of Protein Chains in Target (>1 implies a multichain complex)>
1

> <BindingDB Target Chain Sequence>
MEPGGARLRLQRTEGLGGERERQPCGDGNTETHRAPDLVQWTRHMEAVKAQLLEQAQGQLRELLDRAMREAIQSYPSQDKPLPPPPPGSLSRTQEPSLGKQKVFIIRKSLLDELMEVQHFRTIYHMFIAGLCVFIISTLAIDFIDEGRLLLEFDLLIFSFGQLPLALVTWVPMFLSTLLAPYQALRLWARGTWTQATGLGCALLAAHAVVLCALPVHVAVEHQLPPASRCVLVFEQVRFLMKSYSFLREAVPGTLRARRGEGIQAPSFSSYLYFLFCPTLIYRETYPRTPYVRWNYVAKNFAQALGCVLYACFILGRLCVPVFANMSREPFSTRALVLSILHATLPGIFMLLLIFFAFLHCWLNAFAEMLRFGDRMFYRDWWNSTSFSNYYRTWNVVVHDWLYSYVYQDGLRLLGARARGVAMLGVFLVSAVAHEYIFCFVLGFFYPVMLILFLVIGGMLNFMMHDQRTGPAWNVLMWTMLFLGQGIQVSLYCQEWYARRHCPLPQATFWGLVTPRSWSCHT

> <PDB ID(s) of Target Chain>


> <UniProt (SwissProt) Recommended Name of Target Chain>
Sterol O-acyltransferase 2

> <UniProt (SwissProt) Entry Name of Target Chain>
ACAT-2

> <UniProt (SwissProt) Primary ID of Target Chain>
O75908

> <UniProt (SwissProt) Secondary ID(s) of Target Chain>
F5H7W4 I6L9H9 Q4VB99 Q4VBA1 Q96TD4 Q9UNR2

> <UniProt (SwissProt) Alternative ID(s) of Target Chain>


> <UniProt (TrEMBL) Submitted Name of Target Chain>


> <UniProt (TrEMBL) Entry Name of Target Chain>


> <UniProt (TrEMBL) Primary ID of Target Chain>


> <UniProt (TrEMBL) Secondary ID(s) of Target Chain>


> <UniProt (TrEMBL) Alternative ID(s) of Target Chain>


$$$$

  Mrv0541 11241417102D          

 48 53  0  0  0  0            999 V2000
   10.9083  -13.4041    0.0000 C   0  0  0  0  0  0  0  0  0  0  0  0
   10.5000  -12.6916    0.0000 C   0  0  2  0  0  0  0  0  0  0  0  0
   10.0871  -13.4015    0.0000 C   0  0  0  0  0  0  0  0  0  0  0  0
    9.7917  -11.4583    0.0000 C   0  0  0  0  0  0  0  0  0  0  0  0
    9.7917  -12.2833    0.0000 C   0  0  2  0  0  0  0  0  0  0  0  0
   10.5037  -11.0417    0.0000 C   0  0  0  0  0  0  0  0  0  0  0  0
   11.2156  -11.4583    0.0000 C   0  0  1  0  0  0  0  0  0  0  0  0
   11.2167  -12.2833    0.0000 C   0  0  1  0  0  0  0  0  0  0  0  0
   11.9278  -12.6926    0.0000 C   0  0  0  0  0  0  0  0  0  0  0  0
   12.6423  -12.2815    0.0000 C   0  0  1  0  0  0  0  0  0  0  0  0
   11.9257  -11.0426    0.0000 C   0  0  2  0  0  0  0  0  0  0  0  0
   12.6409  -11.4612    0.0000 C   0  0  2  0  0  0  0  0  0  0  0  0
   13.3569  -11.0532    0.0000 O   0  0  0  0  0  0  0  0  0  0  0  0
   11.9265  -10.2163    0.0000 C   0  0  2  0  0  0  0  0  0  0  0  0
   12.6488   -9.8067    0.0000 C   0  0  0  0  0  0  0  0  0  0  0  0
   13.3669  -10.2289    0.0000 C   0  0  0  0  0  0  0  0  0  0  0  0
   14.0876   -9.8203    0.0000 C   0  0  0  0  0  0  0  0  0  0  0  0
   14.0964   -8.9881    0.0000 C   0  0  0  0  0  0  0  0  0  0  0  0
   13.3783   -8.5659    0.0000 O   0  0  0  0  0  0  0  0  0  0  0  0
   12.6514   -8.9760    0.0000 C   0  0  0  0  0  0  0  0  0  0  0  0
   14.8103   -8.5837    0.0000 C   0  0  0  0  0  0  0  0  0  0  0  0
   15.5211   -9.0046    0.0000 C   0  0  0  0  0  0  0  0  0  0  0  0
   16.2389   -8.5995    0.0000 N   0  0  0  0  0  0  0  0  0  0  0  0
   16.2470   -7.7736    0.0000 C   0  0  0  0  0  0  0  0  0  0  0  0
   15.5314   -7.3546    0.0000 C   0  0  0  0  0  0  0  0  0  0  0  0
   14.8165   -7.7622    0.0000 C   0  0  0  0  0  0  0  0  0  0  0  0
   11.9396   -8.5589    0.0000 O   0  0  0  0  0  0  0  0  0  0  0  0
   13.3569  -12.6939    0.0000 O   0  0  0  0  0  0  0  0  0  0  0  0
   14.0713  -12.2813    0.0000 C   0  0  0  0  0  0  0  0  0  0  0  0
   14.7858  -12.6937    0.0000 C   0  0  0  0  0  0  0  0  0  0  0  0
   14.0712  -11.4563    0.0000 O   0  0  0  0  0  0  0  0  0  0  0  0
    9.0778  -12.6969    0.0000 O   0  0  0  0  0  0  0  0  0  0  0  0
    8.3627  -12.2854    0.0000 C   0  0  0  0  0  0  0  0  0  0  0  0
    7.6489  -12.6989    0.0000 C   0  0  0  0  0  0  0  0  0  0  0  0
    8.3615  -11.4604    0.0000 O   0  0  0  0  0  0  0  0  0  0  0  0
   10.4935  -14.1173    0.0000 O   0  0  0  0  0  0  0  0  0  0  0  0
   10.9038  -14.8331    0.0000 C   0  0  0  0  0  0  0  0  0  0  0  0
   10.4890  -15.5462    0.0000 C   0  0  0  0  0  0  0  0  0  0  0  0
   11.7287  -14.8357    0.0000 O   0  0  0  0  0  0  0  0  0  0  0  0
   11.2138   -9.8006    0.0000 O   0  0  0  0  0  0  0  0  0  0  0  0
   11.2083  -10.6333    0.0000 C   0  0  0  0  0  0  0  0  0  0  0  0
   12.6334  -10.6333    0.0000 C   0  0  0  0  0  0  0  0  0  0  0  0
   14.7807  -13.5177    0.0000 C   0  0  0  0  0  0  0  0  0  0  0  0
   15.4943  -13.9300    0.0000 C   0  0  0  0  0  0  0  0  0  0  0  0
   16.2097  -13.5174    0.0000 C   0  0  0  0  0  0  0  0  0  0  0  0
   16.2070  -12.6882    0.0000 C   0  0  0  0  0  0  0  0  0  0  0  0
   15.4927  -12.2795    0.0000 C   0  0  0  0  0  0  0  0  0  0  0  0
   16.9199  -12.2730    0.0000 C   0  0  0  0  0  0  0  0  0  0  0  0
  2  1  1  6  0  0  0
  2  3  1  1  0  0  0
  5  4  1  0  0  0  0
  4  6  1  0  0  0  0
  2  5  1  0  0  0  0
  8  2  1  0  0  0  0
  7  6  1  0  0  0  0
  7  8  1  0  0  0  0
 11  7  1  1  0  0  0
  8  9  1  1  0  0  0
 10  9  1  0  0  0  0
 12 10  1  0  0  0  0
 11 12  1  0  0  0  0
 11 14  1  0  0  0  0
 12 13  1  0  0  0  0
 13 16  1  0  0  0  0
 14 15  1  0  0  0  0
 15 16  2  0  0  0  0
 15 20  1  0  0  0  0
 16 17  1  0  0  0  0
 17 18  2  0  0  0  0
 18 19  1  0  0  0  0
 19 20  1  0  0  0  0
 21 22  2  0  0  0  0
 22 23  1  0  0  0  0
 23 24  2  0  0  0  0
 24 25  1  0  0  0  0
 25 26  2  0  0  0  0
 26 21  1  0  0  0  0
 18 21  1  0  0  0  0
 20 27  2  0  0  0  0
 10 28  1  1  0  0  0
 28 29  1  0  0  0  0
 29 30  1  0  0  0  0
 29 31  2  0  0  0  0
  5 32  1  1  0  0  0
 32 33  1  0  0  0  0
 33 34  1  0  0  0  0
 33 35  2  0  0  0  0
  1 36  1  0  0  0  0
 36 37  1  0  0  0  0
 37 38  1  0  0  0  0
 37 39  2  0  0  0  0
 14 40  1  1  0  0  0
  7 41  1  1  0  0  0
 12 42  1  1  0  0  0
 30 43  2  0  0  0  0
 43 44  1  0  0  0  0
 44 45  2  0  0  0  0
 45 46  1  0  0  0  0
 46 47  2  0  0  0  0
 47 30  1  0  0  0  0
 46 48  1  0  0  0  0
M  END
> <From>
www.bindingDB.org

> <BindingDB Reactant_set_id>
51053283

> <Ligand InChI>
InChI=1S/C37H41NO10/c1-20-9-7-10-23(15-20)33(42)47-29-17-27-35(4,13-12-28(45-22(3)40)36(27,5)19-44-21(2)39)32-31(41)30-26(48-37(29,32)6)16-25(46-34(30)43)24-11-8-14-38-18-24/h7-11,14-16,18,27-29,31-32,41H,12-13,17,19H2,1-6H3/t27-,28+,29+,31+,32-,35+,36+,37-/m1/s1

> <Ligand InChI Key>
IMLFGOWNGHAQHV-ZRPSWOMSSA-N

> <BindingDB MonomerID>
50429593

> <BindingDB Ligand Name>
CHEMBL2334196

> <Target Name>
Sterol O-acyltransferase 2

> <Target Source Organism According to Curator or DataSource>


> <Ki (nM)>


> <IC50 (nM)>
 5.0

> <Kd (nM)>


> <EC50 (nM)>


> <kon (M-1-s-1)>


> <koff (s-1)>


> <pH>


> <Temp (C)>


> <Curation/DataSource>
ChEMBL

> <Article DOI>
10.1016/j.bmcl.2012.12.099

> <BindingDB Entry DOI>
10.7270/Q2P270HW

> <PMID>
23369538

> <PubChem AID>


> <Patent Number>


> <Authors>
Ohtawa, M; Yamazaki, H; Ohte, S; Matsuda, D; Ohshiro, T; Rudel, LL; Omura, S; Tomoda, H; Nagamitsu, T

> <Institution>
Kitasato University

> <Link to Ligand in BindingDB>
http://www.bindingdb.org/bind/chemsearch/marvin/MolStructure.jsp?monomerid=50429593

> <Link to Target in BindingDB>
http://www.bindingdb.org/jsp/dbsearch/PrimarySearch_ki.jsp?energyterm=kJ/mole&tag=pol&polymerid=7773&target=Sterol+O-acyltransferase+2&column=ki&startPg=0&Increment=50&submit=Search

> <Link to Ligand-Target Pair in BindingDB>
http://www.bindingdb.org/jsp/dbsearch/PrimarySearch_ki.jsp?energyterm=kJ/mole&tag=r21&monomerid=50429593&enzyme=Sterol+O-acyltransferase+2&column=ki&startPg=0&Increment=50&submit=Search

> <Ligand HET ID in PDB>


> <PDB ID(s) for Ligand-Target Complex>


> <PubChem CID>
71561056

> <PubChem SID>
164158468

> <ChEBI ID of Ligand>


> <ChEMBL ID of Ligand>
CHEMBL2334196

> <DrugBank ID of Ligand>


> <IUPHAR_GRAC ID of Ligand>


> <KEGG ID of Ligand>


> <ZINC ID of Ligand>
ZINC95588169

> <Number of Protein Chains in Target (>1 implies a multichain complex)>
1

> <BindingDB Target Chain Sequence>
MEPGGARLRLQRTEGLGGERERQPCGDGNTETHRAPDLVQWTRHMEAVKAQLLEQAQGQLRELLDRAMREAIQSYPSQDKPLPPPPPGSLSRTQEPSLGKQKVFIIRKSLLDELMEVQHFRTIYHMFIAGLCVFIISTLAIDFIDEGRLLLEFDLLIFSFGQLPLALVTWVPMFLSTLLAPYQALRLWARGTWTQATGLGCALLAAHAVVLCALPVHVAVEHQLPPASRCVLVFEQVRFLMKSYSFLREAVPGTLRARRGEGIQAPSFSSYLYFLFCPTLIYRETYPRTPYVRWNYVAKNFAQALGCVLYACFILGRLCVPVFANMSREPFSTRALVLSILHATLPGIFMLLLIFFAFLHCWLNAFAEMLRFGDRMFYRDWWNSTSFSNYYRTWNVVVHDWLYSYVYQDGLRLLGARARGVAMLGVFLVSAVAHEYIFCFVLGFFYPVMLILFLVIGGMLNFMMHDQRTGPAWNVLMWTMLFLGQGIQVSLYCQEWYARRHCPLPQATFWGLVTPRSWSCHT

> <PDB ID(s) of Target Chain>


> <UniProt (SwissProt) Recommended Name of Target Chain>
Sterol O-acyltransferase 2

> <UniProt (SwissProt) Entry Name of Target Chain>
ACAT-2

> <UniProt (SwissProt) Primary ID of Target Chain>
O75908

> <UniProt (SwissProt) Secondary ID(s) of Target Chain>
F5H7W4 I6L9H9 Q4VB99 Q4VBA1 Q96TD4 Q9UNR2

> <UniProt (SwissProt) Alternative ID(s) of Target Chain>


> <UniProt (TrEMBL) Submitted Name of Target Chain>


> <UniProt (TrEMBL) Entry Name of Target Chain>


> <UniProt (TrEMBL) Primary ID of Target Chain>


> <UniProt (TrEMBL) Secondary ID(s) of Target Chain>


> <UniProt (TrEMBL) Alternative ID(s) of Target Chain>


$$$$

  Mrv0541 11241417102D          

 49 54  0  0  0  0            999 V2000
    0.7041  -13.6620    0.0000 C   0  0  0  0  0  0  0  0  0  0  0  0
    0.2958  -12.9495    0.0000 C   0  0  2  0  0  0  0  0  0  0  0  0
   -0.1246  -13.6594    0.0000 C   0  0  0  0  0  0  0  0  0  0  0  0
   -0.4125  -11.7163    0.0000 C   0  0  0  0  0  0  0  0  0  0  0  0
   -0.4125  -12.5412    0.0000 C   0  0  2  0  0  0  0  0  0  0  0  0
    0.2995  -11.2995    0.0000 C   0  0  0  0  0  0  0  0  0  0  0  0
    1.0115  -11.7163    0.0000 C   0  0  1  0  0  0  0  0  0  0  0  0
    1.0125  -12.5412    0.0000 C   0  0  1  0  0  0  0  0  0  0  0  0
    1.7235  -12.9505    0.0000 C   0  0  0  0  0  0  0  0  0  0  0  0
    2.4381  -12.5394    0.0000 C   0  0  1  0  0  0  0  0  0  0  0  0
    1.7214  -11.3005    0.0000 C   0  0  2  0  0  0  0  0  0  0  0  0
    2.4367  -11.7190    0.0000 C   0  0  2  0  0  0  0  0  0  0  0  0
    3.1527  -11.3111    0.0000 O   0  0  0  0  0  0  0  0  0  0  0  0
    1.7223  -10.4742    0.0000 C   0  0  2  0  0  0  0  0  0  0  0  0
    2.4445  -10.0647    0.0000 C   0  0  0  0  0  0  0  0  0  0  0  0
    3.1626  -10.4869    0.0000 C   0  0  0  0  0  0  0  0  0  0  0  0
    3.8833  -10.0783    0.0000 C   0  0  0  0  0  0  0  0  0  0  0  0
    3.8922   -9.2461    0.0000 C   0  0  0  0  0  0  0  0  0  0  0  0
    3.1741   -8.8239    0.0000 O   0  0  0  0  0  0  0  0  0  0  0  0
    2.4472   -9.2341    0.0000 C   0  0  0  0  0  0  0  0  0  0  0  0
    4.6059   -8.8418    0.0000 C   0  0  0  0  0  0  0  0  0  0  0  0
    5.3167   -9.2626    0.0000 C   0  0  0  0  0  0  0  0  0  0  0  0
    6.0345   -8.8574    0.0000 N   0  0  0  0  0  0  0  0  0  0  0  0
    6.0426   -8.0316    0.0000 C   0  0  0  0  0  0  0  0  0  0  0  0
    5.3270   -7.6127    0.0000 C   0  0  0  0  0  0  0  0  0  0  0  0
    4.6122   -8.0202    0.0000 C   0  0  0  0  0  0  0  0  0  0  0  0
    1.7354   -8.8169    0.0000 O   0  0  0  0  0  0  0  0  0  0  0  0
    3.1526  -12.9518    0.0000 O   0  0  0  0  0  0  0  0  0  0  0  0
    3.8670  -12.5392    0.0000 C   0  0  0  0  0  0  0  0  0  0  0  0
    4.5815  -12.9516    0.0000 C   0  0  0  0  0  0  0  0  0  0  0  0
    3.8669  -11.7142    0.0000 O   0  0  0  0  0  0  0  0  0  0  0  0
   -1.1319  -12.9547    0.0000 O   0  0  0  0  0  0  0  0  0  0  0  0
   -1.8419  -12.5433    0.0000 C   0  0  0  0  0  0  0  0  0  0  0  0
   -2.5612  -12.9568    0.0000 C   0  0  0  0  0  0  0  0  0  0  0  0
   -1.8489  -11.7183    0.0000 O   0  0  0  0  0  0  0  0  0  0  0  0
    0.2893  -14.3751    0.0000 O   0  0  0  0  0  0  0  0  0  0  0  0
    0.6996  -15.0909    0.0000 C   0  0  0  0  0  0  0  0  0  0  0  0
    0.2848  -15.8040    0.0000 C   0  0  0  0  0  0  0  0  0  0  0  0
    1.5246  -15.0935    0.0000 O   0  0  0  0  0  0  0  0  0  0  0  0
    1.0097  -10.0585    0.0000 O   0  0  0  0  0  0  0  0  0  0  0  0
    1.0042  -10.8913    0.0000 C   0  0  0  0  0  0  0  0  0  0  0  0
    2.4291  -10.8913    0.0000 C   0  0  0  0  0  0  0  0  0  0  0  0
    4.5763  -13.7756    0.0000 C   0  0  0  0  0  0  0  0  0  0  0  0
    5.2900  -14.1879    0.0000 C   0  0  0  0  0  0  0  0  0  0  0  0
    6.0053  -13.7753    0.0000 C   0  0  0  0  0  0  0  0  0  0  0  0
    6.0026  -12.9460    0.0000 C   0  0  0  0  0  0  0  0  0  0  0  0
    5.2884  -12.5374    0.0000 C   0  0  0  0  0  0  0  0  0  0  0  0
    6.7205  -14.1866    0.0000 C   0  0  0  0  0  0  0  0  0  0  0  0
    6.7216  -15.0116    0.0000 C   0  0  0  0  0  0  0  0  0  0  0  0
  2  1  1  6  0  0  0
  2  3  1  1  0  0  0
  5  4  1  0  0  0  0
  4  6  1  0  0  0  0
  2  5  1  0  0  0  0
  8  2  1  0  0  0  0
  7  6  1  0  0  0  0
  7  8  1  0  0  0  0
 11  7  1  1  0  0  0
  8  9  1  1  0  0  0
 10  9  1  0  0  0  0
 12 10  1  0  0  0  0
 11 12  1  0  0  0  0
 11 14  1  0  0  0  0
 12 13  1  0  0  0  0
 13 16  1  0  0  0  0
 14 15  1  0  0  0  0
 15 16  2  0  0  0  0
 15 20  1  0  0  0  0
 16 17  1  0  0  0  0
 17 18  2  0  0  0  0
 18 19  1  0  0  0  0
 19 20  1  0  0  0  0
 21 22  2  0  0  0  0
 22 23  1  0  0  0  0
 23 24  2  0  0  0  0
 24 25  1  0  0  0  0
 25 26  2  0  0  0  0
 26 21  1  0  0  0  0
 18 21  1  0  0  0  0
 20 27  2  0  0  0  0
 10 28  1  1  0  0  0
 28 29  1  0  0  0  0
 29 30  1  0  0  0  0
 29 31  2  0  0  0  0
  5 32  1  1  0  0  0
 32 33  1  0  0  0  0
 33 34  1  0  0  0  0
 33 35  2  0  0  0  0
  1 36  1  0  0  0  0
 36 37  1  0  0  0  0
 37 38  1  0  0  0  0
 37 39  2  0  0  0  0
 14 40  1  1  0  0  0
  7 41  1  1  0  0  0
 12 42  1  1  0  0  0
 30 43  2  0  0  0  0
 43 44  1  0  0  0  0
 44 45  2  0  0  0  0
 45 46  1  0  0  0  0
 46 47  2  0  0  0  0
 47 30  1  0  0  0  0
 45 48  1  0  0  0  0
 48 49  2  0  0  0  0
M  END
> <From>
www.bindingDB.org

> <BindingDB Reactant_set_id>
51053284

> <Ligand InChI>
InChI=1S/C38H41NO10/c1-7-23-10-12-24(13-11-23)34(43)48-30-18-28-36(4,15-14-29(46-22(3)41)37(28,5)20-45-21(2)40)33-32(42)31-27(49-38(30,33)6)17-26(47-35(31)44)25-9-8-16-39-19-25/h7-13,16-17,19,28-30,32-33,42H,1,14-15,18,20H2,2-6H3/t28-,29+,30+,32+,33-,36+,37+,38-/m1/s1

> <Ligand InChI Key>
LRNCBBGMAUQBSX-DYBHYMMPSA-N

> <BindingDB MonomerID>
50429594

> <BindingDB Ligand Name>
CHEMBL2334195

> <Target Name>
Sterol O-acyltransferase 2

> <Target Source Organism According to Curator or DataSource>


> <Ki (nM)>


> <IC50 (nM)>
 5.0

> <Kd (nM)>


> <EC50 (nM)>


> <kon (M-1-s-1)>


> <koff (s-1)>


> <pH>


> <Temp (C)>


> <Curation/DataSource>
ChEMBL

> <Article DOI>
10.1016/j.bmcl.2012.12.099

> <BindingDB Entry DOI>
10.7270/Q2P270HW

> <PMID>
23369538

> <PubChem AID>


> <Patent Number>


> <Authors>
Ohtawa, M; Yamazaki, H; Ohte, S; Matsuda, D; Ohshiro, T; Rudel, LL; Omura, S; Tomoda, H; Nagamitsu, T

> <Institution>
Kitasato University

> <Link to Ligand in BindingDB>
http://www.bindingdb.org/bind/chemsearch/marvin/MolStructure.jsp?monomerid=50429594

> <Link to Target in BindingDB>
http://www.bindingdb.org/jsp/dbsearch/PrimarySearch_ki.jsp?energyterm=kJ/mole&tag=pol&polymerid=7773&target=Sterol+O-acyltransferase+2&column=ki&startPg=0&Increment=50&submit=Search

> <Link to Ligand-Target Pair in BindingDB>
http://www.bindingdb.org/jsp/dbsearch/PrimarySearch_ki.jsp?energyterm=kJ/mole&tag=r21&monomerid=50429594&enzyme=Sterol+O-acyltransferase+2&column=ki&startPg=0&Increment=50&submit=Search

> <Ligand HET ID in PDB>


> <PDB ID(s) for Ligand-Target Complex>


> <PubChem CID>
71561055

> <PubChem SID>
164158469

> <ChEBI ID of Ligand>


> <ChEMBL ID of Ligand>
CHEMBL2334195

> <DrugBank ID of Ligand>


> <IUPHAR_GRAC ID of Ligand>


> <KEGG ID of Ligand>


> <ZINC ID of Ligand>
ZINC95587814

> <Number of Protein Chains in Target (>1 implies a multichain complex)>
1

> <BindingDB Target Chain Sequence>
MEPGGARLRLQRTEGLGGERERQPCGDGNTETHRAPDLVQWTRHMEAVKAQLLEQAQGQLRELLDRAMREAIQSYPSQDKPLPPPPPGSLSRTQEPSLGKQKVFIIRKSLLDELMEVQHFRTIYHMFIAGLCVFIISTLAIDFIDEGRLLLEFDLLIFSFGQLPLALVTWVPMFLSTLLAPYQALRLWARGTWTQATGLGCALLAAHAVVLCALPVHVAVEHQLPPASRCVLVFEQVRFLMKSYSFLREAVPGTLRARRGEGIQAPSFSSYLYFLFCPTLIYRETYPRTPYVRWNYVAKNFAQALGCVLYACFILGRLCVPVFANMSREPFSTRALVLSILHATLPGIFMLLLIFFAFLHCWLNAFAEMLRFGDRMFYRDWWNSTSFSNYYRTWNVVVHDWLYSYVYQDGLRLLGARARGVAMLGVFLVSAVAHEYIFCFVLGFFYPVMLILFLVIGGMLNFMMHDQRTGPAWNVLMWTMLFLGQGIQVSLYCQEWYARRHCPLPQATFWGLVTPRSWSCHT

> <PDB ID(s) of Target Chain>


> <UniProt (SwissProt) Recommended Name of Target Chain>
Sterol O-acyltransferase 2

> <UniProt (SwissProt) Entry Name of Target Chain>
ACAT-2

> <UniProt (SwissProt) Primary ID of Target Chain>
O75908

> <UniProt (SwissProt) Secondary ID(s) of Target Chain>
F5H7W4 I6L9H9 Q4VB99 Q4VBA1 Q96TD4 Q9UNR2

> <UniProt (SwissProt) Alternative ID(s) of Target Chain>


> <UniProt (TrEMBL) Submitted Name of Target Chain>


> <UniProt (TrEMBL) Entry Name of Target Chain>


> <UniProt (TrEMBL) Primary ID of Target Chain>


> <UniProt (TrEMBL) Secondary ID(s) of Target Chain>


> <UniProt (TrEMBL) Alternative ID(s) of Target Chain>


$$$$

  Mrv0541 11241417102D          

 50 55  0  0  0  0            999 V2000
   30.8715   -5.2793    0.0000 C   0  0  0  0  0  0  0  0  0  0  0  0
   30.4633   -4.5667    0.0000 C   0  0  2  0  0  0  0  0  0  0  0  0
   30.0503   -5.2767    0.0000 C   0  0  0  0  0  0  0  0  0  0  0  0
   29.7548   -3.3334    0.0000 C   0  0  0  0  0  0  0  0  0  0  0  0
   29.7548   -4.1585    0.0000 C   0  0  2  0  0  0  0  0  0  0  0  0
   30.4669   -2.9168    0.0000 C   0  0  0  0  0  0  0  0  0  0  0  0
   31.1790   -3.3334    0.0000 C   0  0  1  0  0  0  0  0  0  0  0  0
   31.1800   -4.1585    0.0000 C   0  0  1  0  0  0  0  0  0  0  0  0
   31.8911   -4.5677    0.0000 C   0  0  0  0  0  0  0  0  0  0  0  0
   32.6057   -4.1566    0.0000 C   0  0  1  0  0  0  0  0  0  0  0  0
   31.8890   -2.9177    0.0000 C   0  0  2  0  0  0  0  0  0  0  0  0
   32.6042   -3.3363    0.0000 C   0  0  2  0  0  0  0  0  0  0  0  0
   33.3203   -2.9283    0.0000 O   0  0  0  0  0  0  0  0  0  0  0  0
   31.8898   -2.0913    0.0000 C   0  0  2  0  0  0  0  0  0  0  0  0
   32.6122   -1.6818    0.0000 C   0  0  0  0  0  0  0  0  0  0  0  0
   33.3303   -2.1040    0.0000 C   0  0  0  0  0  0  0  0  0  0  0  0
   34.0509   -1.6954    0.0000 C   0  0  0  0  0  0  0  0  0  0  0  0
   34.0598   -0.8631    0.0000 C   0  0  0  0  0  0  0  0  0  0  0  0
   33.3417   -0.4409    0.0000 O   0  0  0  0  0  0  0  0  0  0  0  0
   32.6147   -0.8511    0.0000 C   0  0  0  0  0  0  0  0  0  0  0  0
   34.7736   -0.4588    0.0000 C   0  0  0  0  0  0  0  0  0  0  0  0
   35.4845   -0.8796    0.0000 C   0  0  0  0  0  0  0  0  0  0  0  0
   36.2023   -0.4745    0.0000 N   0  0  0  0  0  0  0  0  0  0  0  0
   36.2104    0.3570    0.0000 C   0  0  0  0  0  0  0  0  0  0  0  0
   35.4947    0.7713    0.0000 C   0  0  0  0  0  0  0  0  0  0  0  0
   34.7798    0.3705    0.0000 C   0  0  0  0  0  0  0  0  0  0  0  0
   31.9029   -0.4339    0.0000 O   0  0  0  0  0  0  0  0  0  0  0  0
   33.3202   -4.5691    0.0000 O   0  0  0  0  0  0  0  0  0  0  0  0
   34.0347   -4.1564    0.0000 C   0  0  0  0  0  0  0  0  0  0  0  0
   34.7491   -4.5689    0.0000 C   0  0  0  0  0  0  0  0  0  0  0  0
   34.0346   -3.3314    0.0000 O   0  0  0  0  0  0  0  0  0  0  0  0
   29.0410   -4.5720    0.0000 O   0  0  0  0  0  0  0  0  0  0  0  0
   28.3259   -4.1605    0.0000 C   0  0  0  0  0  0  0  0  0  0  0  0
   27.6120   -4.5741    0.0000 C   0  0  0  0  0  0  0  0  0  0  0  0
   28.3247   -3.3355    0.0000 O   0  0  0  0  0  0  0  0  0  0  0  0
   30.4568   -5.9925    0.0000 O   0  0  0  0  0  0  0  0  0  0  0  0
   30.8670   -6.7083    0.0000 C   0  0  0  0  0  0  0  0  0  0  0  0
   30.4523   -7.4214    0.0000 C   0  0  0  0  0  0  0  0  0  0  0  0
   31.6920   -6.7109    0.0000 O   0  0  0  0  0  0  0  0  0  0  0  0
   31.1771   -1.6757    0.0000 O   0  0  0  0  0  0  0  0  0  0  0  0
   31.1716   -2.5084    0.0000 C   0  0  0  0  0  0  0  0  0  0  0  0
   32.5966   -2.5084    0.0000 C   0  0  0  0  0  0  0  0  0  0  0  0
   34.7440   -5.3929    0.0000 C   0  0  0  0  0  0  0  0  0  0  0  0
   35.4577   -5.8052    0.0000 C   0  0  0  0  0  0  0  0  0  0  0  0
   36.1731   -5.3926    0.0000 C   0  0  0  0  0  0  0  0  0  0  0  0
   36.1703   -4.5633    0.0000 C   0  0  0  0  0  0  0  0  0  0  0  0
   35.4560   -4.1546    0.0000 C   0  0  0  0  0  0  0  0  0  0  0  0
   36.8882   -5.8040    0.0000 N   0  3  0  0  0  0  0  0  0  0  0  0
   37.6081   -5.3920    0.0000 O   0  0  0  0  0  0  0  0  0  0  0  0
   36.8954   -6.6305    0.0000 O   0  5  0  0  0  0  0  0  0  0  0  0
  2  1  1  6  0  0  0
  2  3  1  1  0  0  0
  5  4  1  0  0  0  0
  4  6  1  0  0  0  0
  2  5  1  0  0  0  0
  8  2  1  0  0  0  0
  7  6  1  0  0  0  0
  7  8  1  0  0  0  0
 11  7  1  1  0  0  0
  8  9  1  1  0  0  0
 10  9  1  0  0  0  0
 12 10  1  0  0  0  0
 11 12  1  0  0  0  0
 11 14  1  0  0  0  0
 12 13  1  0  0  0  0
 13 16  1  0  0  0  0
 14 15  1  0  0  0  0
 15 16  2  0  0  0  0
 15 20  1  0  0  0  0
 16 17  1  0  0  0  0
 17 18  2  0  0  0  0
 18 19  1  0  0  0  0
 19 20  1  0  0  0  0
 21 22  2  0  0  0  0
 22 23  1  0  0  0  0
 23 24  2  0  0  0  0
 24 25  1  0  0  0  0
 25 26  2  0  0  0  0
 26 21  1  0  0  0  0
 18 21  1  0  0  0  0
 20 27  2  0  0  0  0
 10 28  1  1  0  0  0
 28 29  1  0  0  0  0
 29 30  1  0  0  0  0
 29 31  2  0  0  0  0
  5 32  1  1  0  0  0
 32 33  1  0  0  0  0
 33 34  1  0  0  0  0
 33 35  2  0  0  0  0
  1 36  1  0  0  0  0
 36 37  1  0  0  0  0
 37 38  1  0  0  0  0
 37 39  2  0  0  0  0
 14 40  1  1  0  0  0
  7 41  1  1  0  0  0
 12 42  1  1  0  0  0
 30 43  2  0  0  0  0
 43 44  1  0  0  0  0
 44 45  2  0  0  0  0
 45 46  1  0  0  0  0
 46 47  2  0  0  0  0
 47 30  1  0  0  0  0
 45 48  1  0  0  0  0
 48 49  2  0  0  0  0
 48 50  1  0  0  0  0
M  CHG  2  48   1  50  -1
M  END
> <From>
www.bindingDB.org

> <BindingDB Reactant_set_id>
51053285

> <Ligand InChI>
InChI=1S/C36H38N2O12/c1-19(39)46-18-35(4)26-16-28(49-32(42)21-8-10-23(11-9-21)38(44)45)36(5)31(34(26,3)13-12-27(35)47-20(2)40)30(41)29-25(50-36)15-24(48-33(29)43)22-7-6-14-37-17-22/h6-11,14-15,17,26-28,30-31,41H,12-13,16,18H2,1-5H3/t26-,27+,28+,30+,31-,34+,35+,36-/m1/s1

> <Ligand InChI Key>
DHWSEXMNXLGQJB-HRSZXCBJSA-N

> <BindingDB MonomerID>
50429595

> <BindingDB Ligand Name>
CHEMBL2334194

> <Target Name>
Sterol O-acyltransferase 2

> <Target Source Organism According to Curator or DataSource>


> <Ki (nM)>


> <IC50 (nM)>
 5.0

> <Kd (nM)>


> <EC50 (nM)>


> <kon (M-1-s-1)>


> <koff (s-1)>


> <pH>


> <Temp (C)>


> <Curation/DataSource>
ChEMBL

> <Article DOI>
10.1016/j.bmcl.2012.12.099

> <BindingDB Entry DOI>
10.7270/Q2P270HW

> <PMID>
23369538

> <PubChem AID>


> <Patent Number>


> <Authors>
Ohtawa, M; Yamazaki, H; Ohte, S; Matsuda, D; Ohshiro, T; Rudel, LL; Omura, S; Tomoda, H; Nagamitsu, T

> <Institution>
Kitasato University

> <Link to Ligand in BindingDB>
http://www.bindingdb.org/bind/chemsearch/marvin/MolStructure.jsp?monomerid=50429595

> <Link to Target in BindingDB>
http://www.bindingdb.org/jsp/dbsearch/PrimarySearch_ki.jsp?energyterm=kJ/mole&tag=pol&polymerid=7773&target=Sterol+O-acyltransferase+2&column=ki&startPg=0&Increment=50&submit=Search

> <Link to Ligand-Target Pair in BindingDB>
http://www.bindingdb.org/jsp/dbsearch/PrimarySearch_ki.jsp?energyterm=kJ/mole&tag=r21&monomerid=50429595&enzyme=Sterol+O-acyltransferase+2&column=ki&startPg=0&Increment=50&submit=Search

> <Ligand HET ID in PDB>


> <PDB ID(s) for Ligand-Target Complex>


> <PubChem CID>
71561054

> <PubChem SID>
164158470

> <ChEBI ID of Ligand>


> <ChEMBL ID of Ligand>
CHEMBL2334194

> <DrugBank ID of Ligand>


> <IUPHAR_GRAC ID of Ligand>


> <KEGG ID of Ligand>


> <ZINC ID of Ligand>
ZINC95591279

> <Number of Protein Chains in Target (>1 implies a multichain complex)>
1

> <BindingDB Target Chain Sequence>
MEPGGARLRLQRTEGLGGERERQPCGDGNTETHRAPDLVQWTRHMEAVKAQLLEQAQGQLRELLDRAMREAIQSYPSQDKPLPPPPPGSLSRTQEPSLGKQKVFIIRKSLLDELMEVQHFRTIYHMFIAGLCVFIISTLAIDFIDEGRLLLEFDLLIFSFGQLPLALVTWVPMFLSTLLAPYQALRLWARGTWTQATGLGCALLAAHAVVLCALPVHVAVEHQLPPASRCVLVFEQVRFLMKSYSFLREAVPGTLRARRGEGIQAPSFSSYLYFLFCPTLIYRETYPRTPYVRWNYVAKNFAQALGCVLYACFILGRLCVPVFANMSREPFSTRALVLSILHATLPGIFMLLLIFFAFLHCWLNAFAEMLRFGDRMFYRDWWNSTSFSNYYRTWNVVVHDWLYSYVYQDGLRLLGARARGVAMLGVFLVSAVAHEYIFCFVLGFFYPVMLILFLVIGGMLNFMMHDQRTGPAWNVLMWTMLFLGQGIQVSLYCQEWYARRHCPLPQATFWGLVTPRSWSCHT

> <PDB ID(s) of Target Chain>


> <UniProt (SwissProt) Recommended Name of Target Chain>
Sterol O-acyltransferase 2

> <UniProt (SwissProt) Entry Name of Target Chain>
ACAT-2

> <UniProt (SwissProt) Primary ID of Target Chain>
O75908

> <UniProt (SwissProt) Secondary ID(s) of Target Chain>
F5H7W4 I6L9H9 Q4VB99 Q4VBA1 Q96TD4 Q9UNR2

> <UniProt (SwissProt) Alternative ID(s) of Target Chain>


> <UniProt (TrEMBL) Submitted Name of Target Chain>


> <UniProt (TrEMBL) Entry Name of Target Chain>


> <UniProt (TrEMBL) Primary ID of Target Chain>


> <UniProt (TrEMBL) Secondary ID(s) of Target Chain>


> <UniProt (TrEMBL) Alternative ID(s) of Target Chain>


$$$$

  Mrv0541 11241417312D          

 51 56  0  0  0  0            999 V2000
    1.5292   -7.3124    0.0000 C   0  0  0  0  0  0  0  0  0  0  0  0
    1.1208   -6.5999    0.0000 C   0  0  1  0  0  0  0  0  0  0  0  0
    0.7080   -7.3098    0.0000 C   0  0  0  0  0  0  0  0  0  0  0  0
    0.4125   -5.3666    0.0000 C   0  0  0  0  0  0  0  0  0  0  0  0
    0.4125   -6.1916    0.0000 C   0  0  2  0  0  0  0  0  0  0  0  0
    1.1245   -4.9499    0.0000 C   0  0  0  0  0  0  0  0  0  0  0  0
    1.8366   -5.3666    0.0000 C   0  0  1  0  0  0  0  0  0  0  0  0
    1.8376   -6.1916    0.0000 C   0  0  1  0  0  0  0  0  0  0  0  0
    2.5486   -6.6009    0.0000 C   0  0  0  0  0  0  0  0  0  0  0  0
    3.2631   -6.1898    0.0000 C   0  0  1  0  0  0  0  0  0  0  0  0
    2.5465   -4.9509    0.0000 C   0  0  2  0  0  0  0  0  0  0  0  0
    3.2640   -5.3654    0.0000 C   0  0  2  0  0  0  0  0  0  0  0  0
    3.9778   -4.9536    0.0000 O   0  0  0  0  0  0  0  0  0  0  0  0
    2.5427   -4.1246    0.0000 C   0  0  2  0  0  0  0  0  0  0  0  0
    3.2627   -3.7110    0.0000 C   0  0  0  0  0  0  0  0  0  0  0  0
    3.9854   -4.1247    0.0000 C   0  0  0  0  0  0  0  0  0  0  0  0
    4.7009   -3.7080    0.0000 C   0  0  0  0  0  0  0  0  0  0  0  0
    4.7001   -2.8761    0.0000 C   0  0  0  0  0  0  0  0  0  0  0  0
    3.9776   -2.4624    0.0000 O   0  0  0  0  0  0  0  0  0  0  0  0
    3.2558   -2.8807    0.0000 C   0  0  0  0  0  0  0  0  0  0  0  0
    5.4128   -2.4645    0.0000 C   0  0  0  0  0  0  0  0  0  0  0  0
    6.1285   -2.8770    0.0000 C   0  0  0  0  0  0  0  0  0  0  0  0
    6.8415   -2.4636    0.0000 N   0  0  0  0  0  0  0  0  0  0  0  0
    6.8400   -1.6377    0.0000 C   0  0  0  0  0  0  0  0  0  0  0  0
    6.1196   -1.2312    0.0000 C   0  0  0  0  0  0  0  0  0  0  0  0
    5.4095   -1.6428    0.0000 C   0  0  0  0  0  0  0  0  0  0  0  0
    3.9771   -6.6032    0.0000 O   0  0  0  0  0  0  0  0  0  0  0  0
    4.6920   -6.1916    0.0000 C   0  0  0  0  0  0  0  0  0  0  0  0
    5.4060   -6.6050    0.0000 C   0  0  0  0  0  0  0  0  0  0  0  0
    4.6931   -5.3666    0.0000 O   0  0  0  0  0  0  0  0  0  0  0  0
    5.4002   -7.4301    0.0000 C   0  0  0  0  0  0  0  0  0  0  0  0
    6.1134   -7.8434    0.0000 C   0  0  0  0  0  0  0  0  0  0  0  0
    6.8293   -7.4318    0.0000 C   0  0  0  0  0  0  0  0  0  0  0  0
    6.8277   -6.6026    0.0000 C   0  0  0  0  0  0  0  0  0  0  0  0
    6.1141   -6.1929    0.0000 C   0  0  0  0  0  0  0  0  0  0  0  0
    7.5432   -7.8404    0.0000 C   0  0  0  0  0  0  0  0  0  0  0  0
    8.2576   -8.2529    0.0000 N   0  0  0  0  0  0  0  0  0  0  0  0
    2.5392   -2.4719    0.0000 O   0  0  0  0  0  0  0  0  0  0  0  0
    1.8278   -3.7129    0.0000 O   0  0  0  0  0  0  0  0  0  0  0  0
    1.8292   -4.5416    0.0000 C   0  0  0  0  0  0  0  0  0  0  0  0
    3.2583   -4.5375    0.0000 C   0  0  0  0  0  0  0  0  0  0  0  0
   -0.3070   -6.6051    0.0000 O   0  0  0  0  0  0  0  0  0  0  0  0
   -1.0169   -6.1936    0.0000 C   0  0  0  0  0  0  0  0  0  0  0  0
   -1.7303   -6.6071    0.0000 C   0  0  0  0  0  0  0  0  0  0  0  0
   -1.0240   -5.3686    0.0000 O   0  0  0  0  0  0  0  0  0  0  0  0
   -0.1246   -7.3072    0.0000 O   0  0  0  0  0  0  0  0  0  0  0  0
   -0.5349   -8.0203    0.0000 C   0  0  0  0  0  0  0  0  0  0  0  0
   -1.3599   -8.0177    0.0000 O   0  0  0  0  0  0  0  0  0  0  0  0
   -0.1284   -8.7361    0.0000 C   0  0  0  0  0  0  0  0  0  0  0  0
   -2.4479   -6.1968    0.0000 C   0  0  0  0  0  0  0  0  0  0  0  0
    0.7033   -8.7387    0.0000 C   0  0  0  0  0  0  0  0  0  0  0  0
  2  1  1  1  0  0  0
  2  3  1  6  0  0  0
  5  4  1  0  0  0  0
  4  6  1  0  0  0  0
  2  5  1  0  0  0  0
  8  2  1  0  0  0  0
  7  6  1  0  0  0  0
  7  8  1  0  0  0  0
 11  7  1  1  0  0  0
  8  9  1  1  0  0  0
 10  9  1  0  0  0  0
 12 10  1  0  0  0  0
 11 12  1  0  0  0  0
 11 14  1  0  0  0  0
 12 13  1  0  0  0  0
 13 16  1  0  0  0  0
 14 15  1  0  0  0  0
 15 16  2  0  0  0  0
 15 20  1  0  0  0  0
 16 17  1  0  0  0  0
 17 18  2  0  0  0  0
 18 19  1  0  0  0  0
 19 20  1  0  0  0  0
 21 22  2  0  0  0  0
 22 23  1  0  0  0  0
 23 24  2  0  0  0  0
 24 25  1  0  0  0  0
 25 26  2  0  0  0  0
 26 21  1  0  0  0  0
 18 21  1  0  0  0  0
 10 27  1  1  0  0  0
 27 28  1  0  0  0  0
 28 29  1  0  0  0  0
 28 30  2  0  0  0  0
 29 31  2  0  0  0  0
 31 32  1  0  0  0  0
 32 33  2  0  0  0  0
 33 34  1  0  0  0  0
 34 35  2  0  0  0  0
 35 29  1  0  0  0  0
 36 37  3  0  0  0  0
 33 36  1  0  0  0  0
 20 38  2  0  0  0  0
 14 39  1  1  0  0  0
  7 40  1  1  0  0  0
 12 41  1  1  0  0  0
  5 42  1  1  0  0  0
 42 43  1  0  0  0  0
 43 44  1  0  0  0  0
 43 45  2  0  0  0  0
  3 46  1  0  0  0  0
 46 47  1  0  0  0  0
 47 48  2  0  0  0  0
 47 49  1  0  0  0  0
 44 50  1  0  0  0  0
 49 51  1  0  0  0  0
M  END
> <From>
www.bindingDB.org

> <BindingDB Reactant_set_id>
51061808

> <Ligand InChI>
InChI=1S/C39H42N2O10/c1-6-30(42)47-21-38(4)27-18-29(50-35(45)23-12-10-22(19-40)11-13-23)39(5)34(37(27,3)15-14-28(38)49-31(43)7-2)33(44)32-26(51-39)17-25(48-36(32)46)24-9-8-16-41-20-24/h8-13,16-17,20,27-29,33-34,44H,6-7,14-15,18,21H2,1-5H3/t27-,28+,29+,33+,34-,37+,38+,39-/m1/s1

> <Ligand InChI Key>
LITJWEWIVJZXSL-MOOCLLNDSA-N

> <BindingDB MonomerID>
50433214

> <BindingDB Ligand Name>
CHEMBL2375701

> <Target Name>
Sterol O-acyltransferase 2

> <Target Source Organism According to Curator or DataSource>


> <Ki (nM)>


> <IC50 (nM)>
 5.6

> <Kd (nM)>


> <EC50 (nM)>


> <kon (M-1-s-1)>


> <koff (s-1)>


> <pH>


> <Temp (C)>


> <Curation/DataSource>
ChEMBL

> <Article DOI>
10.1016/j.bmcl.2013.02.088

> <BindingDB Entry DOI>
10.7270/Q20866P3

> <PMID>
23535327

> <PubChem AID>


> <Patent Number>


> <Authors>
Ohtawa, M; Yamazaki, H; Matsuda, D; Ohshiro, T; Rudel, LL; Omura, S; Tomoda, H; Nagamitsu, T

> <Institution>
Kitasato University

> <Link to Ligand in BindingDB>
http://www.bindingdb.org/bind/chemsearch/marvin/MolStructure.jsp?monomerid=50433214

> <Link to Target in BindingDB>
http://www.bindingdb.org/jsp/dbsearch/PrimarySearch_ki.jsp?energyterm=kJ/mole&tag=pol&polymerid=7773&target=Sterol+O-acyltransferase+2&column=ki&startPg=0&Increment=50&submit=Search

> <Link to Ligand-Target Pair in BindingDB>
http://www.bindingdb.org/jsp/dbsearch/PrimarySearch_ki.jsp?energyterm=kJ/mole&tag=r21&monomerid=50433214&enzyme=Sterol+O-acyltransferase+2&column=ki&startPg=0&Increment=50&submit=Search

> <Ligand HET ID in PDB>


> <PDB ID(s) for Ligand-Target Complex>


> <PubChem CID>
71602614

> <PubChem SID>
175445531

> <ChEBI ID of Ligand>


> <ChEMBL ID of Ligand>
CHEMBL2375701

> <DrugBank ID of Ligand>


> <IUPHAR_GRAC ID of Ligand>


> <KEGG ID of Ligand>


> <ZINC ID of Ligand>
ZINC96258633

> <Number of Protein Chains in Target (>1 implies a multichain complex)>
1

> <BindingDB Target Chain Sequence>
MEPGGARLRLQRTEGLGGERERQPCGDGNTETHRAPDLVQWTRHMEAVKAQLLEQAQGQLRELLDRAMREAIQSYPSQDKPLPPPPPGSLSRTQEPSLGKQKVFIIRKSLLDELMEVQHFRTIYHMFIAGLCVFIISTLAIDFIDEGRLLLEFDLLIFSFGQLPLALVTWVPMFLSTLLAPYQALRLWARGTWTQATGLGCALLAAHAVVLCALPVHVAVEHQLPPASRCVLVFEQVRFLMKSYSFLREAVPGTLRARRGEGIQAPSFSSYLYFLFCPTLIYRETYPRTPYVRWNYVAKNFAQALGCVLYACFILGRLCVPVFANMSREPFSTRALVLSILHATLPGIFMLLLIFFAFLHCWLNAFAEMLRFGDRMFYRDWWNSTSFSNYYRTWNVVVHDWLYSYVYQDGLRLLGARARGVAMLGVFLVSAVAHEYIFCFVLGFFYPVMLILFLVIGGMLNFMMHDQRTGPAWNVLMWTMLFLGQGIQVSLYCQEWYARRHCPLPQATFWGLVTPRSWSCHT

> <PDB ID(s) of Target Chain>


> <UniProt (SwissProt) Recommended Name of Target Chain>
Sterol O-acyltransferase 2

> <UniProt (SwissProt) Entry Name of Target Chain>
ACAT-2

> <UniProt (SwissProt) Primary ID of Target Chain>
O75908

> <UniProt (SwissProt) Secondary ID(s) of Target Chain>
F5H7W4 I6L9H9 Q4VB99 Q4VBA1 Q96TD4 Q9UNR2

> <UniProt (SwissProt) Alternative ID(s) of Target Chain>


> <UniProt (TrEMBL) Submitted Name of Target Chain>


> <UniProt (TrEMBL) Entry Name of Target Chain>


> <UniProt (TrEMBL) Primary ID of Target Chain>


> <UniProt (TrEMBL) Secondary ID(s) of Target Chain>


> <UniProt (TrEMBL) Alternative ID(s) of Target Chain>


$$$$

  Mrv0541 11241417102D          

 51 56  0  0  0  0            999 V2000
   14.5540   -9.7332    0.0000 C   0  0  0  0  0  0  0  0  0  0  0  0
   14.1456   -9.0207    0.0000 C   0  0  2  0  0  0  0  0  0  0  0  0
   13.7328   -9.7306    0.0000 C   0  0  0  0  0  0  0  0  0  0  0  0
   13.4373   -7.7874    0.0000 C   0  0  0  0  0  0  0  0  0  0  0  0
   13.4373   -8.6124    0.0000 C   0  0  2  0  0  0  0  0  0  0  0  0
   14.1494   -7.3708    0.0000 C   0  0  0  0  0  0  0  0  0  0  0  0
   14.8614   -7.7874    0.0000 C   0  0  1  0  0  0  0  0  0  0  0  0
   14.8624   -8.6124    0.0000 C   0  0  1  0  0  0  0  0  0  0  0  0
   15.5734   -9.0217    0.0000 C   0  0  0  0  0  0  0  0  0  0  0  0
   16.2880   -8.6106    0.0000 C   0  0  1  0  0  0  0  0  0  0  0  0
   15.5713   -7.3717    0.0000 C   0  0  2  0  0  0  0  0  0  0  0  0
   16.2866   -7.7903    0.0000 C   0  0  2  0  0  0  0  0  0  0  0  0
   17.0027   -7.3823    0.0000 O   0  0  0  0  0  0  0  0  0  0  0  0
   15.5722   -6.5454    0.0000 C   0  0  2  0  0  0  0  0  0  0  0  0
   16.2945   -6.1358    0.0000 C   0  0  0  0  0  0  0  0  0  0  0  0
   17.0125   -6.5580    0.0000 C   0  0  0  0  0  0  0  0  0  0  0  0
   17.7333   -6.1495    0.0000 C   0  0  0  0  0  0  0  0  0  0  0  0
   17.7421   -5.3172    0.0000 C   0  0  0  0  0  0  0  0  0  0  0  0
   17.0241   -4.8950    0.0000 O   0  0  0  0  0  0  0  0  0  0  0  0
   16.2971   -5.3052    0.0000 C   0  0  0  0  0  0  0  0  0  0  0  0
   18.4559   -4.9129    0.0000 C   0  0  0  0  0  0  0  0  0  0  0  0
   19.1668   -5.3337    0.0000 C   0  0  0  0  0  0  0  0  0  0  0  0
   19.8845   -4.9286    0.0000 N   0  0  0  0  0  0  0  0  0  0  0  0
   19.8927   -4.1027    0.0000 C   0  0  0  0  0  0  0  0  0  0  0  0
   19.1770   -3.6837    0.0000 C   0  0  0  0  0  0  0  0  0  0  0  0
   18.4622   -4.0913    0.0000 C   0  0  0  0  0  0  0  0  0  0  0  0
   15.5853   -4.8880    0.0000 O   0  0  0  0  0  0  0  0  0  0  0  0
   17.0026   -9.0230    0.0000 O   0  0  0  0  0  0  0  0  0  0  0  0
   17.7169   -8.6104    0.0000 C   0  0  0  0  0  0  0  0  0  0  0  0
   18.4315   -9.0228    0.0000 C   0  0  0  0  0  0  0  0  0  0  0  0
   17.7168   -7.7854    0.0000 O   0  0  0  0  0  0  0  0  0  0  0  0
   12.7235   -9.0259    0.0000 O   0  0  0  0  0  0  0  0  0  0  0  0
   12.0084   -8.6144    0.0000 C   0  0  0  0  0  0  0  0  0  0  0  0
   11.2946   -9.0281    0.0000 C   0  0  0  0  0  0  0  0  0  0  0  0
   12.0072   -7.7894    0.0000 O   0  0  0  0  0  0  0  0  0  0  0  0
   14.1393  -10.4464    0.0000 O   0  0  0  0  0  0  0  0  0  0  0  0
   14.5495  -11.1621    0.0000 C   0  0  0  0  0  0  0  0  0  0  0  0
   14.1346  -11.8753    0.0000 C   0  0  0  0  0  0  0  0  0  0  0  0
   15.3745  -11.1648    0.0000 O   0  0  0  0  0  0  0  0  0  0  0  0
   14.8596   -6.1298    0.0000 O   0  0  0  0  0  0  0  0  0  0  0  0
   14.8540   -6.9624    0.0000 C   0  0  0  0  0  0  0  0  0  0  0  0
   16.2790   -6.9624    0.0000 C   0  0  0  0  0  0  0  0  0  0  0  0
   18.4263   -9.8468    0.0000 C   0  0  0  0  0  0  0  0  0  0  0  0
   19.1400  -10.2591    0.0000 C   0  0  0  0  0  0  0  0  0  0  0  0
   19.8554   -9.8465    0.0000 C   0  0  0  0  0  0  0  0  0  0  0  0
   19.8526   -9.0173    0.0000 C   0  0  0  0  0  0  0  0  0  0  0  0
   19.1383   -8.6086    0.0000 C   0  0  0  0  0  0  0  0  0  0  0  0
   20.5655   -8.6021    0.0000 F   0  0  0  0  0  0  0  0  0  0  0  0
   20.5764  -10.2594    0.0000 N   0  3  0  0  0  0  0  0  0  0  0  0
   21.2903   -9.8459    0.0000 O   0  0  0  0  0  0  0  0  0  0  0  0
   20.5776  -11.0844    0.0000 O   0  5  0  0  0  0  0  0  0  0  0  0
  2  1  1  6  0  0  0
  2  3  1  1  0  0  0
  5  4  1  0  0  0  0
  4  6  1  0  0  0  0
  2  5  1  0  0  0  0
  8  2  1  0  0  0  0
  7  6  1  0  0  0  0
  7  8  1  0  0  0  0
 11  7  1  1  0  0  0
  8  9  1  1  0  0  0
 10  9  1  0  0  0  0
 12 10  1  0  0  0  0
 11 12  1  0  0  0  0
 11 14  1  0  0  0  0
 12 13  1  0  0  0  0
 13 16  1  0  0  0  0
 14 15  1  0  0  0  0
 15 16  2  0  0  0  0
 15 20  1  0  0  0  0
 16 17  1  0  0  0  0
 17 18  2  0  0  0  0
 18 19  1  0  0  0  0
 19 20  1  0  0  0  0
 21 22  2  0  0  0  0
 22 23  1  0  0  0  0
 23 24  2  0  0  0  0
 24 25  1  0  0  0  0
 25 26  2  0  0  0  0
 26 21  1  0  0  0  0
 18 21  1  0  0  0  0
 20 27  2  0  0  0  0
 10 28  1  1  0  0  0
 28 29  1  0  0  0  0
 29 30  1  0  0  0  0
 29 31  2  0  0  0  0
  5 32  1  1  0  0  0
 32 33  1  0  0  0  0
 33 34  1  0  0  0  0
 33 35  2  0  0  0  0
  1 36  1  0  0  0  0
 36 37  1  0  0  0  0
 37 38  1  0  0  0  0
 37 39  2  0  0  0  0
 14 40  1  1  0  0  0
  7 41  1  1  0  0  0
 12 42  1  1  0  0  0
 30 43  2  0  0  0  0
 43 44  1  0  0  0  0
 44 45  2  0  0  0  0
 45 46  1  0  0  0  0
 46 47  2  0  0  0  0
 47 30  1  0  0  0  0
 46 48  1  0  0  0  0
 49 50  2  0  0  0  0
 49 51  1  0  0  0  0
 45 49  1  0  0  0  0
M  CHG  2  49   1  51  -1
M  END
> <From>
www.bindingDB.org

> <BindingDB Reactant_set_id>
51053266

> <Ligand InChI>
InChI=1S/C36H37FN2O12/c1-18(40)47-17-35(4)26-15-28(50-32(43)20-8-9-23(39(45)46)22(37)13-20)36(5)31(34(26,3)11-10-27(35)48-19(2)41)30(42)29-25(51-36)14-24(49-33(29)44)21-7-6-12-38-16-21/h6-9,12-14,16,26-28,30-31,42H,10-11,15,17H2,1-5H3/t26-,27+,28+,30+,31-,34+,35+,36-/m1/s1

> <Ligand InChI Key>
KVXVKPRHPZHTTR-HRSZXCBJSA-N

> <BindingDB MonomerID>
50429576

> <BindingDB Ligand Name>
CHEMBL2334213

> <Target Name>
Sterol O-acyltransferase 2

> <Target Source Organism According to Curator or DataSource>


> <Ki (nM)>


> <IC50 (nM)>
 6.0

> <Kd (nM)>


> <EC50 (nM)>


> <kon (M-1-s-1)>


> <koff (s-1)>


> <pH>


> <Temp (C)>


> <Curation/DataSource>
ChEMBL

> <Article DOI>
10.1016/j.bmcl.2012.12.099

> <BindingDB Entry DOI>
10.7270/Q2P270HW

> <PMID>
23369538

> <PubChem AID>


> <Patent Number>


> <Authors>
Ohtawa, M; Yamazaki, H; Ohte, S; Matsuda, D; Ohshiro, T; Rudel, LL; Omura, S; Tomoda, H; Nagamitsu, T

> <Institution>
Kitasato University

> <Link to Ligand in BindingDB>
http://www.bindingdb.org/bind/chemsearch/marvin/MolStructure.jsp?monomerid=50429576

> <Link to Target in BindingDB>
http://www.bindingdb.org/jsp/dbsearch/PrimarySearch_ki.jsp?energyterm=kJ/mole&tag=pol&polymerid=7773&target=Sterol+O-acyltransferase+2&column=ki&startPg=0&Increment=50&submit=Search

> <Link to Ligand-Target Pair in BindingDB>
http://www.bindingdb.org/jsp/dbsearch/PrimarySearch_ki.jsp?energyterm=kJ/mole&tag=r21&monomerid=50429576&enzyme=Sterol+O-acyltransferase+2&column=ki&startPg=0&Increment=50&submit=Search

> <Ligand HET ID in PDB>


> <PDB ID(s) for Ligand-Target Complex>


> <PubChem CID>
71559545

> <PubChem SID>
164158451

> <ChEBI ID of Ligand>


> <ChEMBL ID of Ligand>
CHEMBL2334213

> <DrugBank ID of Ligand>


> <IUPHAR_GRAC ID of Ligand>


> <KEGG ID of Ligand>


> <ZINC ID of Ligand>
ZINC95591292

> <Number of Protein Chains in Target (>1 implies a multichain complex)>
1

> <BindingDB Target Chain Sequence>
MEPGGARLRLQRTEGLGGERERQPCGDGNTETHRAPDLVQWTRHMEAVKAQLLEQAQGQLRELLDRAMREAIQSYPSQDKPLPPPPPGSLSRTQEPSLGKQKVFIIRKSLLDELMEVQHFRTIYHMFIAGLCVFIISTLAIDFIDEGRLLLEFDLLIFSFGQLPLALVTWVPMFLSTLLAPYQALRLWARGTWTQATGLGCALLAAHAVVLCALPVHVAVEHQLPPASRCVLVFEQVRFLMKSYSFLREAVPGTLRARRGEGIQAPSFSSYLYFLFCPTLIYRETYPRTPYVRWNYVAKNFAQALGCVLYACFILGRLCVPVFANMSREPFSTRALVLSILHATLPGIFMLLLIFFAFLHCWLNAFAEMLRFGDRMFYRDWWNSTSFSNYYRTWNVVVHDWLYSYVYQDGLRLLGARARGVAMLGVFLVSAVAHEYIFCFVLGFFYPVMLILFLVIGGMLNFMMHDQRTGPAWNVLMWTMLFLGQGIQVSLYCQEWYARRHCPLPQATFWGLVTPRSWSCHT

> <PDB ID(s) of Target Chain>


> <UniProt (SwissProt) Recommended Name of Target Chain>
Sterol O-acyltransferase 2

> <UniProt (SwissProt) Entry Name of Target Chain>
ACAT-2

> <UniProt (SwissProt) Primary ID of Target Chain>
O75908

> <UniProt (SwissProt) Secondary ID(s) of Target Chain>
F5H7W4 I6L9H9 Q4VB99 Q4VBA1 Q96TD4 Q9UNR2

> <UniProt (SwissProt) Alternative ID(s) of Target Chain>


> <UniProt (TrEMBL) Submitted Name of Target Chain>


> <UniProt (TrEMBL) Entry Name of Target Chain>


> <UniProt (TrEMBL) Primary ID of Target Chain>


> <UniProt (TrEMBL) Secondary ID(s) of Target Chain>


> <UniProt (TrEMBL) Alternative ID(s) of Target Chain>


$$$$

  Mrv0541 11241418062D          

 50 57  0  0  0  0            999 V2000
    1.5390   -5.0094    0.0000 C   0  0  0  0  0  0  0  0  0  0  0  0
    2.2518   -4.5923    0.0000 C   0  0  0  0  0  0  0  0  0  0  0  0
    2.9647   -5.0094    0.0000 C   0  0  1  0  0  0  0  0  0  0  0  0
    2.9657   -5.8353    0.0000 C   0  0  1  0  0  0  0  0  0  0  0  0
    3.6776   -6.2450    0.0000 C   0  0  0  0  0  0  0  0  0  0  0  0
    4.3928   -5.8335    0.0000 C   0  0  1  0  0  0  0  0  0  0  0  0
    3.6755   -4.5933    0.0000 C   0  0  2  0  0  0  0  0  0  0  0  0
    4.3874   -5.0100    0.0000 C   0  0  2  0  0  0  0  0  0  0  0  0
    5.1003   -4.6037    0.0000 O   0  0  0  0  0  0  0  0  0  0  0  0
    3.6763   -3.7707    0.0000 C   0  0  2  0  0  0  0  0  0  0  0  0
    2.2518   -6.2441    0.0000 C   0  0  1  0  0  0  0  0  0  0  0  0
    1.5390   -5.8353    0.0000 C   0  0  1  0  0  0  0  0  0  0  0  0
    0.8327   -6.2459    0.0000 O   0  0  0  0  0  0  0  0  0  0  0  0
    0.8328   -7.0670    0.0000 C   0  0  1  0  0  0  0  0  0  0  0  0
    1.5455   -7.4757    0.0000 O   0  0  0  0  0  0  0  0  0  0  0  0
    2.2582   -7.0634    0.0000 C   0  0  0  0  0  0  0  0  0  0  0  0
    4.3953   -3.3629    0.0000 C   0  0  0  0  0  0  0  0  0  0  0  0
    5.1057   -3.7811    0.0000 C   0  0  0  0  0  0  0  0  0  0  0  0
    5.8192   -3.3771    0.0000 C   0  0  0  0  0  0  0  0  0  0  0  0
    5.8284   -2.5533    0.0000 C   0  0  0  0  0  0  0  0  0  0  0  0
    5.1179   -2.1352    0.0000 O   0  0  0  0  0  0  0  0  0  0  0  0
    4.3982   -2.5407    0.0000 C   0  0  0  0  0  0  0  0  0  0  0  0
    3.6860   -2.1229    0.0000 O   0  0  0  0  0  0  0  0  0  0  0  0
    2.9628   -3.3545    0.0000 O   0  0  0  0  0  0  0  0  0  0  0  0
    4.3796   -4.1835    0.0000 C   0  0  0  0  0  0  0  0  0  0  0  0
    5.1091   -6.2446    0.0000 O   0  0  0  0  0  0  0  0  0  0  0  0
    2.9573   -4.1835    0.0000 C   0  0  0  0  0  0  0  0  0  0  0  0
    2.2440   -5.4182    0.0000 C   0  0  0  0  0  0  0  0  0  0  0  0
    5.8233   -5.8299    0.0000 C   0  0  0  0  0  0  0  0  0  0  0  0
    6.5395   -6.2410    0.0000 C   0  0  0  0  0  0  0  0  0  0  0  0
    5.8212   -5.0040    0.0000 O   0  0  0  0  0  0  0  0  0  0  0  0
    6.5395   -7.0669    0.0000 C   0  0  0  0  0  0  0  0  0  0  0  0
    7.2549   -7.4778    0.0000 C   0  0  0  0  0  0  0  0  0  0  0  0
    7.9702   -7.0631    0.0000 C   0  0  0  0  0  0  0  0  0  0  0  0
    7.9654   -6.2330    0.0000 C   0  0  0  0  0  0  0  0  0  0  0  0
    7.2494   -5.8257    0.0000 C   0  0  0  0  0  0  0  0  0  0  0  0
    6.5479   -2.1481    0.0000 C   0  0  0  0  0  0  0  0  0  0  0  0
    7.2593   -2.5696    0.0000 C   0  0  0  0  0  0  0  0  0  0  0  0
    7.9780   -2.1644    0.0000 N   0  0  0  0  0  0  0  0  0  0  0  0
    7.9865   -1.3377    0.0000 C   0  0  0  0  0  0  0  0  0  0  0  0
    7.2704   -0.9180    0.0000 C   0  0  0  0  0  0  0  0  0  0  0  0
    6.5545   -1.3256    0.0000 C   0  0  0  0  0  0  0  0  0  0  0  0
    8.6858   -7.4689    0.0000 C   0  0  0  0  0  0  0  0  0  0  0  0
    9.4027   -7.8792    0.0000 N   0  0  0  0  0  0  0  0  0  0  0  0
    0.1189   -7.4806    0.0000 C   0  0  0  0  0  0  0  0  0  0  0  0
   -0.5955   -7.0681    0.0000 C   0  0  0  0  0  0  0  0  0  0  0  0
   -1.3100   -7.4806    0.0000 C   0  0  0  0  0  0  0  0  0  0  0  0
   -1.3100   -8.3056    0.0000 C   0  0  0  0  0  0  0  0  0  0  0  0
   -0.5955   -8.7181    0.0000 C   0  0  0  0  0  0  0  0  0  0  0  0
    0.1189   -8.3056    0.0000 C   0  0  0  0  0  0  0  0  0  0  0  0
 12  1  1  0  0  0  0
  1  2  1  0  0  0  0
  4 11  1  0  0  0  0
  3  2  1  0  0  0  0
  3  4  1  0  0  0  0
  7  3  1  1  0  0  0
  4  5  1  1  0  0  0
  6  5  1  0  0  0  0
  8  6  1  0  0  0  0
  7  8  1  0  0  0  0
  7 10  1  0  0  0  0
  8  9  1  0  0  0  0
  9 18  1  0  0  0  0
 10 17  1  0  0  0  0
 11 12  1  0  0  0  0
 11 16  1  0  0  0  0
 12 13  1  1  0  0  0
 14 13  1  0  0  0  0
 14 15  1  0  0  0  0
 15 16  1  0  0  0  0
 17 18  2  0  0  0  0
 17 22  1  0  0  0  0
 18 19  1  0  0  0  0
 19 20  2  0  0  0  0
 20 21  1  0  0  0  0
 21 22  1  0  0  0  0
 22 23  2  0  0  0  0
 10 24  1  1  0  0  0
  8 25  1  1  0  0  0
  6 26  1  1  0  0  0
  3 27  1  1  0  0  0
 11 28  1  1  0  0  0
 26 29  1  0  0  0  0
 29 30  1  0  0  0  0
 29 31  2  0  0  0  0
 30 32  2  0  0  0  0
 32 33  1  0  0  0  0
 33 34  2  0  0  0  0
 34 35  1  0  0  0  0
 35 36  2  0  0  0  0
 36 30  1  0  0  0  0
 37 38  2  0  0  0  0
 38 39  1  0  0  0  0
 39 40  2  0  0  0  0
 40 41  1  0  0  0  0
 41 42  2  0  0  0  0
 42 37  1  0  0  0  0
 20 37  1  0  0  0  0
 43 44  3  0  0  0  0
 34 43  1  0  0  0  0
 14 45  1  1  0  0  0
 50 45  2  0  0  0  0
 46 45  1  0  0  0  0
 46 47  2  0  0  0  0
 47 48  1  0  0  0  0
 48 49  2  0  0  0  0
 49 50  1  0  0  0  0
M  END
> <From>
www.bindingDB.org

> <BindingDB Reactant_set_id>
51068431

> <Ligand InChI>
InChI=1S/C40H38N2O8/c1-38-16-15-30-39(2,22-46-37(49-30)25-8-5-4-6-9-25)29(38)19-31(48-35(44)24-13-11-23(20-41)12-14-24)40(3)34(38)33(43)32-28(50-40)18-27(47-36(32)45)26-10-7-17-42-21-26/h4-14,17-18,21,29-31,33-34,37,43H,15-16,19,22H2,1-3H3/t29-,30+,31+,33+,34-,37-,38+,39+,40-/m1/s1

> <Ligand InChI Key>
OLMLXIHADMDRSC-WVGFPPCDSA-N

> <BindingDB MonomerID>
50436344

> <BindingDB Ligand Name>
CHEMBL2398815

> <Target Name>
Sterol O-acyltransferase 2

> <Target Source Organism According to Curator or DataSource>


> <Ki (nM)>


> <IC50 (nM)>
 6.0

> <Kd (nM)>


> <EC50 (nM)>


> <kon (M-1-s-1)>


> <koff (s-1)>


> <pH>


> <Temp (C)>


> <Curation/DataSource>
ChEMBL

> <Article DOI>
10.1016/j.bmcl.2013.04.075

> <BindingDB Entry DOI>
10.7270/Q2WD41Z9

> <PMID>
23711919

> <PubChem AID>


> <Patent Number>


> <Authors>
Ohtawa, M; Yamazaki, H; Ohte, S; Matsuda, D; Ohshiro, T; Rudel, LL; Omura, S; Tomoda, H; Nagamitsu, T

> <Institution>
Kitasato University

> <Link to Ligand in BindingDB>
http://www.bindingdb.org/bind/chemsearch/marvin/MolStructure.jsp?monomerid=50436344

> <Link to Target in BindingDB>
http://www.bindingdb.org/jsp/dbsearch/PrimarySearch_ki.jsp?energyterm=kJ/mole&tag=pol&polymerid=7773&target=Sterol+O-acyltransferase+2&column=ki&startPg=0&Increment=50&submit=Search

> <Link to Ligand-Target Pair in BindingDB>
http://www.bindingdb.org/jsp/dbsearch/PrimarySearch_ki.jsp?energyterm=kJ/mole&tag=r21&monomerid=50436344&enzyme=Sterol+O-acyltransferase+2&column=ki&startPg=0&Increment=50&submit=Search

> <Ligand HET ID in PDB>


> <PDB ID(s) for Ligand-Target Complex>


> <PubChem CID>
71682045

> <PubChem SID>
175448661

> <ChEBI ID of Ligand>


> <ChEMBL ID of Ligand>
CHEMBL2398815

> <DrugBank ID of Ligand>


> <IUPHAR_GRAC ID of Ligand>


> <KEGG ID of Ligand>


> <ZINC ID of Ligand>
ZINC68150011

> <Number of Protein Chains in Target (>1 implies a multichain complex)>
1

> <BindingDB Target Chain Sequence>
MEPGGARLRLQRTEGLGGERERQPCGDGNTETHRAPDLVQWTRHMEAVKAQLLEQAQGQLRELLDRAMREAIQSYPSQDKPLPPPPPGSLSRTQEPSLGKQKVFIIRKSLLDELMEVQHFRTIYHMFIAGLCVFIISTLAIDFIDEGRLLLEFDLLIFSFGQLPLALVTWVPMFLSTLLAPYQALRLWARGTWTQATGLGCALLAAHAVVLCALPVHVAVEHQLPPASRCVLVFEQVRFLMKSYSFLREAVPGTLRARRGEGIQAPSFSSYLYFLFCPTLIYRETYPRTPYVRWNYVAKNFAQALGCVLYACFILGRLCVPVFANMSREPFSTRALVLSILHATLPGIFMLLLIFFAFLHCWLNAFAEMLRFGDRMFYRDWWNSTSFSNYYRTWNVVVHDWLYSYVYQDGLRLLGARARGVAMLGVFLVSAVAHEYIFCFVLGFFYPVMLILFLVIGGMLNFMMHDQRTGPAWNVLMWTMLFLGQGIQVSLYCQEWYARRHCPLPQATFWGLVTPRSWSCHT

> <PDB ID(s) of Target Chain>


> <UniProt (SwissProt) Recommended Name of Target Chain>
Sterol O-acyltransferase 2

> <UniProt (SwissProt) Entry Name of Target Chain>
ACAT-2

> <UniProt (SwissProt) Primary ID of Target Chain>
O75908

> <UniProt (SwissProt) Secondary ID(s) of Target Chain>
F5H7W4 I6L9H9 Q4VB99 Q4VBA1 Q96TD4 Q9UNR2

> <UniProt (SwissProt) Alternative ID(s) of Target Chain>


> <UniProt (TrEMBL) Submitted Name of Target Chain>


> <UniProt (TrEMBL) Entry Name of Target Chain>


> <UniProt (TrEMBL) Primary ID of Target Chain>


> <UniProt (TrEMBL) Secondary ID(s) of Target Chain>


> <UniProt (TrEMBL) Alternative ID(s) of Target Chain>


$$$$

  Mrv0541 11241417102D          

 50 55  0  0  0  0            999 V2000
    4.3501   -7.5210    0.0000 C   0  0  0  0  0  0  0  0  0  0  0  0
    3.9418   -6.8085    0.0000 C   0  0  2  0  0  0  0  0  0  0  0  0
    3.5289   -7.5183    0.0000 C   0  0  0  0  0  0  0  0  0  0  0  0
    3.2334   -5.5751    0.0000 C   0  0  0  0  0  0  0  0  0  0  0  0
    3.2334   -6.4001    0.0000 C   0  0  2  0  0  0  0  0  0  0  0  0
    3.9454   -5.1584    0.0000 C   0  0  0  0  0  0  0  0  0  0  0  0
    4.6575   -5.5751    0.0000 C   0  0  1  0  0  0  0  0  0  0  0  0
    4.6585   -6.4001    0.0000 C   0  0  1  0  0  0  0  0  0  0  0  0
    5.3696   -6.8095    0.0000 C   0  0  0  0  0  0  0  0  0  0  0  0
    6.0841   -6.3983    0.0000 C   0  0  1  0  0  0  0  0  0  0  0  0
    5.3675   -5.1595    0.0000 C   0  0  2  0  0  0  0  0  0  0  0  0
    6.0827   -5.5779    0.0000 C   0  0  2  0  0  0  0  0  0  0  0  0
    6.7988   -5.1701    0.0000 O   0  0  0  0  0  0  0  0  0  0  0  0
    5.3683   -4.3330    0.0000 C   0  0  2  0  0  0  0  0  0  0  0  0
    6.0907   -3.9235    0.0000 C   0  0  0  0  0  0  0  0  0  0  0  0
    6.8088   -4.3457    0.0000 C   0  0  0  0  0  0  0  0  0  0  0  0
    7.5294   -3.9372    0.0000 C   0  0  0  0  0  0  0  0  0  0  0  0
    7.5383   -3.1048    0.0000 C   0  0  0  0  0  0  0  0  0  0  0  0
    6.8202   -2.6826    0.0000 O   0  0  0  0  0  0  0  0  0  0  0  0
    6.0932   -3.0927    0.0000 C   0  0  0  0  0  0  0  0  0  0  0  0
    8.2521   -2.7005    0.0000 C   0  0  0  0  0  0  0  0  0  0  0  0
    8.9631   -3.1213    0.0000 C   0  0  0  0  0  0  0  0  0  0  0  0
    9.6808   -2.7162    0.0000 N   0  0  0  0  0  0  0  0  0  0  0  0
    9.6889   -1.8903    0.0000 C   0  0  0  0  0  0  0  0  0  0  0  0
    8.9732   -1.4714    0.0000 C   0  0  0  0  0  0  0  0  0  0  0  0
    8.2584   -1.8789    0.0000 C   0  0  0  0  0  0  0  0  0  0  0  0
    5.3815   -2.6756    0.0000 O   0  0  0  0  0  0  0  0  0  0  0  0
    6.7987   -6.8107    0.0000 O   0  0  0  0  0  0  0  0  0  0  0  0
    7.5132   -6.3981    0.0000 C   0  0  0  0  0  0  0  0  0  0  0  0
    8.2277   -6.8105    0.0000 C   0  0  0  0  0  0  0  0  0  0  0  0
    7.5130   -5.5731    0.0000 O   0  0  0  0  0  0  0  0  0  0  0  0
    2.5195   -6.8137    0.0000 O   0  0  0  0  0  0  0  0  0  0  0  0
    1.8044   -6.4023    0.0000 C   0  0  0  0  0  0  0  0  0  0  0  0
    1.0905   -6.8158    0.0000 C   0  0  0  0  0  0  0  0  0  0  0  0
    1.8032   -5.5772    0.0000 O   0  0  0  0  0  0  0  0  0  0  0  0
    3.9353   -8.2341    0.0000 O   0  0  0  0  0  0  0  0  0  0  0  0
    4.3455   -8.9500    0.0000 C   0  0  0  0  0  0  0  0  0  0  0  0
    3.9308   -9.6632    0.0000 C   0  0  0  0  0  0  0  0  0  0  0  0
    5.1706   -8.9527    0.0000 O   0  0  0  0  0  0  0  0  0  0  0  0
    4.6557   -3.9174    0.0000 O   0  0  0  0  0  0  0  0  0  0  0  0
    4.6501   -4.7501    0.0000 C   0  0  0  0  0  0  0  0  0  0  0  0
    6.0751   -4.7501    0.0000 C   0  0  0  0  0  0  0  0  0  0  0  0
    8.2225   -7.6346    0.0000 C   0  0  0  0  0  0  0  0  0  0  0  0
    8.9362   -8.0470    0.0000 C   0  0  0  0  0  0  0  0  0  0  0  0
    9.6517   -7.6342    0.0000 C   0  0  0  0  0  0  0  0  0  0  0  0
    9.6489   -6.8050    0.0000 C   0  0  0  0  0  0  0  0  0  0  0  0
    8.9346   -6.3964    0.0000 C   0  0  0  0  0  0  0  0  0  0  0  0
   10.3618   -6.3898    0.0000 F   0  0  0  0  0  0  0  0  0  0  0  0
   10.3668   -8.0457    0.0000 O   0  0  0  0  0  0  0  0  0  0  0  0
   10.3680   -8.8708    0.0000 C   0  0  0  0  0  0  0  0  0  0  0  0
  2  1  1  6  0  0  0
  2  3  1  1  0  0  0
  5  4  1  0  0  0  0
  4  6  1  0  0  0  0
  2  5  1  0  0  0  0
  8  2  1  0  0  0  0
  7  6  1  0  0  0  0
  7  8  1  0  0  0  0
 11  7  1  1  0  0  0
  8  9  1  1  0  0  0
 10  9  1  0  0  0  0
 12 10  1  0  0  0  0
 11 12  1  0  0  0  0
 11 14  1  0  0  0  0
 12 13  1  0  0  0  0
 13 16  1  0  0  0  0
 14 15  1  0  0  0  0
 15 16  2  0  0  0  0
 15 20  1  0  0  0  0
 16 17  1  0  0  0  0
 17 18  2  0  0  0  0
 18 19  1  0  0  0  0
 19 20  1  0  0  0  0
 21 22  2  0  0  0  0
 22 23  1  0  0  0  0
 23 24  2  0  0  0  0
 24 25  1  0  0  0  0
 25 26  2  0  0  0  0
 26 21  1  0  0  0  0
 18 21  1  0  0  0  0
 20 27  2  0  0  0  0
 10 28  1  1  0  0  0
 28 29  1  0  0  0  0
 29 30  1  0  0  0  0
 29 31  2  0  0  0  0
  5 32  1  1  0  0  0
 32 33  1  0  0  0  0
 33 34  1  0  0  0  0
 33 35  2  0  0  0  0
  1 36  1  0  0  0  0
 36 37  1  0  0  0  0
 37 38  1  0  0  0  0
 37 39  2  0  0  0  0
 14 40  1  1  0  0  0
  7 41  1  1  0  0  0
 12 42  1  1  0  0  0
 30 43  2  0  0  0  0
 43 44  1  0  0  0  0
 44 45  2  0  0  0  0
 45 46  1  0  0  0  0
 46 47  2  0  0  0  0
 47 30  1  0  0  0  0
 46 48  1  0  0  0  0
 45 49  1  0  0  0  0
 49 50  1  0  0  0  0
M  END
> <From>
www.bindingDB.org

> <BindingDB Reactant_set_id>
51053265

> <Ligand InChI>
InChI=1S/C37H40FNO11/c1-19(40)46-18-36(4)27-16-29(49-33(43)21-9-10-24(45-6)23(38)14-21)37(5)32(35(27,3)12-11-28(36)47-20(2)41)31(42)30-26(50-37)15-25(48-34(30)44)22-8-7-13-39-17-22/h7-10,13-15,17,27-29,31-32,42H,11-12,16,18H2,1-6H3/t27-,28+,29+,31+,32-,35+,36+,37-/m1/s1

> <Ligand InChI Key>
NQHQOBCHCSVZNH-ZRPSWOMSSA-N

> <BindingDB MonomerID>
50429575

> <BindingDB Ligand Name>
CHEMBL2334214

> <Target Name>
Sterol O-acyltransferase 2

> <Target Source Organism According to Curator or DataSource>


> <Ki (nM)>


> <IC50 (nM)>
 6.1

> <Kd (nM)>


> <EC50 (nM)>


> <kon (M-1-s-1)>


> <koff (s-1)>


> <pH>


> <Temp (C)>


> <Curation/DataSource>
ChEMBL

> <Article DOI>
10.1016/j.bmcl.2012.12.099

> <BindingDB Entry DOI>
10.7270/Q2P270HW

> <PMID>
23369538

> <PubChem AID>


> <Patent Number>


> <Authors>
Ohtawa, M; Yamazaki, H; Ohte, S; Matsuda, D; Ohshiro, T; Rudel, LL; Omura, S; Tomoda, H; Nagamitsu, T

> <Institution>
Kitasato University

> <Link to Ligand in BindingDB>
http://www.bindingdb.org/bind/chemsearch/marvin/MolStructure.jsp?monomerid=50429575

> <Link to Target in BindingDB>
http://www.bindingdb.org/jsp/dbsearch/PrimarySearch_ki.jsp?energyterm=kJ/mole&tag=pol&polymerid=7773&target=Sterol+O-acyltransferase+2&column=ki&startPg=0&Increment=50&submit=Search

> <Link to Ligand-Target Pair in BindingDB>
http://www.bindingdb.org/jsp/dbsearch/PrimarySearch_ki.jsp?energyterm=kJ/mole&tag=r21&monomerid=50429575&enzyme=Sterol+O-acyltransferase+2&column=ki&startPg=0&Increment=50&submit=Search

> <Ligand HET ID in PDB>


> <PDB ID(s) for Ligand-Target Complex>


> <PubChem CID>
71559546

> <PubChem SID>
164158450

> <ChEBI ID of Ligand>


> <ChEMBL ID of Ligand>
CHEMBL2334214

> <DrugBank ID of Ligand>


> <IUPHAR_GRAC ID of Ligand>


> <KEGG ID of Ligand>


> <ZINC ID of Ligand>
ZINC95586982

> <Number of Protein Chains in Target (>1 implies a multichain complex)>
1

> <BindingDB Target Chain Sequence>
MEPGGARLRLQRTEGLGGERERQPCGDGNTETHRAPDLVQWTRHMEAVKAQLLEQAQGQLRELLDRAMREAIQSYPSQDKPLPPPPPGSLSRTQEPSLGKQKVFIIRKSLLDELMEVQHFRTIYHMFIAGLCVFIISTLAIDFIDEGRLLLEFDLLIFSFGQLPLALVTWVPMFLSTLLAPYQALRLWARGTWTQATGLGCALLAAHAVVLCALPVHVAVEHQLPPASRCVLVFEQVRFLMKSYSFLREAVPGTLRARRGEGIQAPSFSSYLYFLFCPTLIYRETYPRTPYVRWNYVAKNFAQALGCVLYACFILGRLCVPVFANMSREPFSTRALVLSILHATLPGIFMLLLIFFAFLHCWLNAFAEMLRFGDRMFYRDWWNSTSFSNYYRTWNVVVHDWLYSYVYQDGLRLLGARARGVAMLGVFLVSAVAHEYIFCFVLGFFYPVMLILFLVIGGMLNFMMHDQRTGPAWNVLMWTMLFLGQGIQVSLYCQEWYARRHCPLPQATFWGLVTPRSWSCHT

> <PDB ID(s) of Target Chain>


> <UniProt (SwissProt) Recommended Name of Target Chain>
Sterol O-acyltransferase 2

> <UniProt (SwissProt) Entry Name of Target Chain>
ACAT-2

> <UniProt (SwissProt) Primary ID of Target Chain>
O75908

> <UniProt (SwissProt) Secondary ID(s) of Target Chain>
F5H7W4 I6L9H9 Q4VB99 Q4VBA1 Q96TD4 Q9UNR2

> <UniProt (SwissProt) Alternative ID(s) of Target Chain>


> <UniProt (TrEMBL) Submitted Name of Target Chain>


> <UniProt (TrEMBL) Entry Name of Target Chain>


> <UniProt (TrEMBL) Primary ID of Target Chain>


> <UniProt (TrEMBL) Secondary ID(s) of Target Chain>


> <UniProt (TrEMBL) Alternative ID(s) of Target Chain>


$$$$

  Mrv0541 11241417102D          

 49 54  0  0  0  0            999 V2000
   15.7170  -10.1753    0.0000 C   0  0  0  0  0  0  0  0  0  0  0  0
   15.3087   -9.4627    0.0000 C   0  0  2  0  0  0  0  0  0  0  0  0
   14.8958  -10.1726    0.0000 C   0  0  0  0  0  0  0  0  0  0  0  0
   14.6003   -8.2294    0.0000 C   0  0  0  0  0  0  0  0  0  0  0  0
   14.6003   -9.0544    0.0000 C   0  0  2  0  0  0  0  0  0  0  0  0
   15.3124   -7.8127    0.0000 C   0  0  0  0  0  0  0  0  0  0  0  0
   16.0245   -8.2294    0.0000 C   0  0  1  0  0  0  0  0  0  0  0  0
   16.0255   -9.0544    0.0000 C   0  0  1  0  0  0  0  0  0  0  0  0
   16.7365   -9.4637    0.0000 C   0  0  0  0  0  0  0  0  0  0  0  0
   17.4511   -9.0526    0.0000 C   0  0  1  0  0  0  0  0  0  0  0  0
   16.7344   -7.8136    0.0000 C   0  0  2  0  0  0  0  0  0  0  0  0
   17.4497   -8.2321    0.0000 C   0  0  2  0  0  0  0  0  0  0  0  0
   18.1658   -7.8242    0.0000 O   0  0  0  0  0  0  0  0  0  0  0  0
   16.7353   -6.9873    0.0000 C   0  0  2  0  0  0  0  0  0  0  0  0
   17.4576   -6.5777    0.0000 C   0  0  0  0  0  0  0  0  0  0  0  0
   18.1757   -6.9999    0.0000 C   0  0  0  0  0  0  0  0  0  0  0  0
   18.8964   -6.5913    0.0000 C   0  0  0  0  0  0  0  0  0  0  0  0
   18.9053   -5.7590    0.0000 C   0  0  0  0  0  0  0  0  0  0  0  0
   18.1872   -5.3368    0.0000 O   0  0  0  0  0  0  0  0  0  0  0  0
   17.4602   -5.7470    0.0000 C   0  0  0  0  0  0  0  0  0  0  0  0
   19.6191   -5.3547    0.0000 C   0  0  0  0  0  0  0  0  0  0  0  0
   20.3300   -5.7756    0.0000 C   0  0  0  0  0  0  0  0  0  0  0  0
   21.0477   -5.3705    0.0000 N   0  0  0  0  0  0  0  0  0  0  0  0
   21.0559   -4.5445    0.0000 C   0  0  0  0  0  0  0  0  0  0  0  0
   20.3402   -4.1255    0.0000 C   0  0  0  0  0  0  0  0  0  0  0  0
   19.6253   -4.5331    0.0000 C   0  0  0  0  0  0  0  0  0  0  0  0
   16.7483   -5.3299    0.0000 O   0  0  0  0  0  0  0  0  0  0  0  0
   18.1657   -9.4650    0.0000 O   0  0  0  0  0  0  0  0  0  0  0  0
   18.8801   -9.0524    0.0000 C   0  0  0  0  0  0  0  0  0  0  0  0
   19.5946   -9.4648    0.0000 C   0  0  0  0  0  0  0  0  0  0  0  0
   18.8800   -8.2274    0.0000 O   0  0  0  0  0  0  0  0  0  0  0  0
   13.8865   -9.4679    0.0000 O   0  0  0  0  0  0  0  0  0  0  0  0
   13.1714   -9.0564    0.0000 C   0  0  0  0  0  0  0  0  0  0  0  0
   12.4575   -9.4700    0.0000 C   0  0  0  0  0  0  0  0  0  0  0  0
   13.1702   -8.2314    0.0000 O   0  0  0  0  0  0  0  0  0  0  0  0
   15.3023  -10.8884    0.0000 O   0  0  0  0  0  0  0  0  0  0  0  0
   15.7125  -11.6042    0.0000 C   0  0  0  0  0  0  0  0  0  0  0  0
   15.2977  -12.3174    0.0000 C   0  0  0  0  0  0  0  0  0  0  0  0
   16.5375  -11.6068    0.0000 O   0  0  0  0  0  0  0  0  0  0  0  0
   16.0226   -6.5717    0.0000 O   0  0  0  0  0  0  0  0  0  0  0  0
   16.0171   -7.4044    0.0000 C   0  0  0  0  0  0  0  0  0  0  0  0
   17.4421   -7.4044    0.0000 C   0  0  0  0  0  0  0  0  0  0  0  0
   19.5895  -10.2888    0.0000 C   0  0  0  0  0  0  0  0  0  0  0  0
   20.3032  -10.7011    0.0000 C   0  0  0  0  0  0  0  0  0  0  0  0
   21.0186  -10.2885    0.0000 C   0  0  0  0  0  0  0  0  0  0  0  0
   21.0158   -9.4593    0.0000 C   0  0  0  0  0  0  0  0  0  0  0  0
   20.3015   -9.0506    0.0000 C   0  0  0  0  0  0  0  0  0  0  0  0
   21.7288   -9.0441    0.0000 F   0  0  0  0  0  0  0  0  0  0  0  0
   21.7337  -10.6999    0.0000 C   0  0  0  0  0  0  0  0  0  0  0  0
  2  1  1  6  0  0  0
  2  3  1  1  0  0  0
  5  4  1  0  0  0  0
  4  6  1  0  0  0  0
  2  5  1  0  0  0  0
  8  2  1  0  0  0  0
  7  6  1  0  0  0  0
  7  8  1  0  0  0  0
 11  7  1  1  0  0  0
  8  9  1  1  0  0  0
 10  9  1  0  0  0  0
 12 10  1  0  0  0  0
 11 12  1  0  0  0  0
 11 14  1  0  0  0  0
 12 13  1  0  0  0  0
 13 16  1  0  0  0  0
 14 15  1  0  0  0  0
 15 16  2  0  0  0  0
 15 20  1  0  0  0  0
 16 17  1  0  0  0  0
 17 18  2  0  0  0  0
 18 19  1  0  0  0  0
 19 20  1  0  0  0  0
 21 22  2  0  0  0  0
 22 23  1  0  0  0  0
 23 24  2  0  0  0  0
 24 25  1  0  0  0  0
 25 26  2  0  0  0  0
 26 21  1  0  0  0  0
 18 21  1  0  0  0  0
 20 27  2  0  0  0  0
 10 28  1  1  0  0  0
 28 29  1  0  0  0  0
 29 30  1  0  0  0  0
 29 31  2  0  0  0  0
  5 32  1  1  0  0  0
 32 33  1  0  0  0  0
 33 34  1  0  0  0  0
 33 35  2  0  0  0  0
  1 36  1  0  0  0  0
 36 37  1  0  0  0  0
 37 38  1  0  0  0  0
 37 39  2  0  0  0  0
 14 40  1  1  0  0  0
  7 41  1  1  0  0  0
 12 42  1  1  0  0  0
 30 43  2  0  0  0  0
 43 44  1  0  0  0  0
 44 45  2  0  0  0  0
 45 46  1  0  0  0  0
 46 47  2  0  0  0  0
 47 30  1  0  0  0  0
 46 48  1  0  0  0  0
 45 49  1  0  0  0  0
M  END
> <From>
www.bindingDB.org

> <BindingDB Reactant_set_id>
51053264

> <Ligand InChI>
InChI=1S/C37H40FNO10/c1-19-9-10-22(14-24(19)38)33(43)48-29-16-27-35(4,12-11-28(46-21(3)41)36(27,5)18-45-20(2)40)32-31(42)30-26(49-37(29,32)6)15-25(47-34(30)44)23-8-7-13-39-17-23/h7-10,13-15,17,27-29,31-32,42H,11-12,16,18H2,1-6H3/t27-,28+,29+,31+,32-,35+,36+,37-/m1/s1

> <Ligand InChI Key>
FYJCZROQKHKRPP-ZRPSWOMSSA-N

> <BindingDB MonomerID>
50429574

> <BindingDB Ligand Name>
CHEMBL2334215

> <Target Name>
Sterol O-acyltransferase 2

> <Target Source Organism According to Curator or DataSource>


> <Ki (nM)>


> <IC50 (nM)>
 6.3

> <Kd (nM)>


> <EC50 (nM)>


> <kon (M-1-s-1)>


> <koff (s-1)>


> <pH>


> <Temp (C)>


> <Curation/DataSource>
ChEMBL

> <Article DOI>
10.1016/j.bmcl.2012.12.099

> <BindingDB Entry DOI>
10.7270/Q2P270HW

> <PMID>
23369538

> <PubChem AID>


> <Patent Number>


> <Authors>
Ohtawa, M; Yamazaki, H; Ohte, S; Matsuda, D; Ohshiro, T; Rudel, LL; Omura, S; Tomoda, H; Nagamitsu, T

> <Institution>
Kitasato University

> <Link to Ligand in BindingDB>
http://www.bindingdb.org/bind/chemsearch/marvin/MolStructure.jsp?monomerid=50429574

> <Link to Target in BindingDB>
http://www.bindingdb.org/jsp/dbsearch/PrimarySearch_ki.jsp?energyterm=kJ/mole&tag=pol&polymerid=7773&target=Sterol+O-acyltransferase+2&column=ki&startPg=0&Increment=50&submit=Search

> <Link to Ligand-Target Pair in BindingDB>
http://www.bindingdb.org/jsp/dbsearch/PrimarySearch_ki.jsp?energyterm=kJ/mole&tag=r21&monomerid=50429574&enzyme=Sterol+O-acyltransferase+2&column=ki&startPg=0&Increment=50&submit=Search

> <Ligand HET ID in PDB>


> <PDB ID(s) for Ligand-Target Complex>


> <PubChem CID>
71559547

> <PubChem SID>
164158449

> <ChEBI ID of Ligand>


> <ChEMBL ID of Ligand>
CHEMBL2334215

> <DrugBank ID of Ligand>


> <IUPHAR_GRAC ID of Ligand>


> <KEGG ID of Ligand>


> <ZINC ID of Ligand>
ZINC95586163

> <Number of Protein Chains in Target (>1 implies a multichain complex)>
1

> <BindingDB Target Chain Sequence>
MEPGGARLRLQRTEGLGGERERQPCGDGNTETHRAPDLVQWTRHMEAVKAQLLEQAQGQLRELLDRAMREAIQSYPSQDKPLPPPPPGSLSRTQEPSLGKQKVFIIRKSLLDELMEVQHFRTIYHMFIAGLCVFIISTLAIDFIDEGRLLLEFDLLIFSFGQLPLALVTWVPMFLSTLLAPYQALRLWARGTWTQATGLGCALLAAHAVVLCALPVHVAVEHQLPPASRCVLVFEQVRFLMKSYSFLREAVPGTLRARRGEGIQAPSFSSYLYFLFCPTLIYRETYPRTPYVRWNYVAKNFAQALGCVLYACFILGRLCVPVFANMSREPFSTRALVLSILHATLPGIFMLLLIFFAFLHCWLNAFAEMLRFGDRMFYRDWWNSTSFSNYYRTWNVVVHDWLYSYVYQDGLRLLGARARGVAMLGVFLVSAVAHEYIFCFVLGFFYPVMLILFLVIGGMLNFMMHDQRTGPAWNVLMWTMLFLGQGIQVSLYCQEWYARRHCPLPQATFWGLVTPRSWSCHT

> <PDB ID(s) of Target Chain>


> <UniProt (SwissProt) Recommended Name of Target Chain>
Sterol O-acyltransferase 2

> <UniProt (SwissProt) Entry Name of Target Chain>
ACAT-2

> <UniProt (SwissProt) Primary ID of Target Chain>
O75908

> <UniProt (SwissProt) Secondary ID(s) of Target Chain>
F5H7W4 I6L9H9 Q4VB99 Q4VBA1 Q96TD4 Q9UNR2

> <UniProt (SwissProt) Alternative ID(s) of Target Chain>


> <UniProt (TrEMBL) Submitted Name of Target Chain>


> <UniProt (TrEMBL) Entry Name of Target Chain>


> <UniProt (TrEMBL) Primary ID of Target Chain>


> <UniProt (TrEMBL) Secondary ID(s) of Target Chain>


> <UniProt (TrEMBL) Alternative ID(s) of Target Chain>


$$$$

  Mrv0541 11241417312D          

 53 58  0  0  0  0            999 V2000
   14.8207   -6.3707    0.0000 C   0  0  0  0  0  0  0  0  0  0  0  0
   14.4124   -5.6583    0.0000 C   0  0  1  0  0  0  0  0  0  0  0  0
   13.9995   -6.3681    0.0000 C   0  0  0  0  0  0  0  0  0  0  0  0
   13.7041   -4.4249    0.0000 C   0  0  0  0  0  0  0  0  0  0  0  0
   13.7041   -5.2499    0.0000 C   0  0  2  0  0  0  0  0  0  0  0  0
   14.4160   -4.0083    0.0000 C   0  0  0  0  0  0  0  0  0  0  0  0
   15.1280   -4.4249    0.0000 C   0  0  1  0  0  0  0  0  0  0  0  0
   15.1291   -5.2499    0.0000 C   0  0  1  0  0  0  0  0  0  0  0  0
   15.8402   -5.6592    0.0000 C   0  0  0  0  0  0  0  0  0  0  0  0
   16.5547   -5.2481    0.0000 C   0  0  1  0  0  0  0  0  0  0  0  0
   15.8380   -4.0093    0.0000 C   0  0  2  0  0  0  0  0  0  0  0  0
   16.5555   -4.4238    0.0000 C   0  0  2  0  0  0  0  0  0  0  0  0
   17.2694   -4.0119    0.0000 O   0  0  0  0  0  0  0  0  0  0  0  0
   15.8343   -3.1829    0.0000 C   0  0  2  0  0  0  0  0  0  0  0  0
   16.5543   -2.7694    0.0000 C   0  0  0  0  0  0  0  0  0  0  0  0
   17.2769   -3.1830    0.0000 C   0  0  0  0  0  0  0  0  0  0  0  0
   17.9924   -2.7664    0.0000 C   0  0  0  0  0  0  0  0  0  0  0  0
   17.9917   -1.9344    0.0000 C   0  0  0  0  0  0  0  0  0  0  0  0
   17.2691   -1.5208    0.0000 O   0  0  0  0  0  0  0  0  0  0  0  0
   16.5472   -1.9391    0.0000 C   0  0  0  0  0  0  0  0  0  0  0  0
   18.7043   -1.5228    0.0000 C   0  0  0  0  0  0  0  0  0  0  0  0
   19.4200   -1.9354    0.0000 C   0  0  0  0  0  0  0  0  0  0  0  0
   20.1330   -1.5219    0.0000 N   0  0  0  0  0  0  0  0  0  0  0  0
   20.1316   -0.6961    0.0000 C   0  0  0  0  0  0  0  0  0  0  0  0
   19.4111   -0.2896    0.0000 C   0  0  0  0  0  0  0  0  0  0  0  0
   18.7011   -0.7012    0.0000 C   0  0  0  0  0  0  0  0  0  0  0  0
   17.2687   -5.6615    0.0000 O   0  0  0  0  0  0  0  0  0  0  0  0
   17.9836   -5.2499    0.0000 C   0  0  0  0  0  0  0  0  0  0  0  0
   18.6976   -5.6633    0.0000 C   0  0  0  0  0  0  0  0  0  0  0  0
   17.9846   -4.4249    0.0000 O   0  0  0  0  0  0  0  0  0  0  0  0
   18.6918   -6.4885    0.0000 C   0  0  0  0  0  0  0  0  0  0  0  0
   19.4049   -6.9019    0.0000 C   0  0  0  0  0  0  0  0  0  0  0  0
   20.1208   -6.4902    0.0000 C   0  0  0  0  0  0  0  0  0  0  0  0
   20.1193   -5.6609    0.0000 C   0  0  0  0  0  0  0  0  0  0  0  0
   19.4056   -5.2513    0.0000 C   0  0  0  0  0  0  0  0  0  0  0  0
   20.8347   -6.8988    0.0000 C   0  0  0  0  0  0  0  0  0  0  0  0
   21.5492   -7.3112    0.0000 N   0  0  0  0  0  0  0  0  0  0  0  0
   15.8308   -1.5303    0.0000 O   0  0  0  0  0  0  0  0  0  0  0  0
   15.1193   -2.7712    0.0000 O   0  0  0  0  0  0  0  0  0  0  0  0
   15.1207   -3.5999    0.0000 C   0  0  0  0  0  0  0  0  0  0  0  0
   16.5499   -3.5958    0.0000 C   0  0  0  0  0  0  0  0  0  0  0  0
   12.9901   -5.6634    0.0000 O   0  0  0  0  0  0  0  0  0  0  0  0
   12.2751   -5.2521    0.0000 C   0  0  0  0  0  0  0  0  0  0  0  0
   11.5635   -5.6656    0.0000 C   0  0  0  0  0  0  0  0  0  0  0  0
   12.2739   -4.4271    0.0000 O   0  0  0  0  0  0  0  0  0  0  0  0
   13.1745   -6.3655    0.0000 O   0  0  0  0  0  0  0  0  0  0  0  0
   12.7597   -7.0786    0.0000 C   0  0  0  0  0  0  0  0  0  0  0  0
   11.9347   -7.0760    0.0000 O   0  0  0  0  0  0  0  0  0  0  0  0
   13.1699   -7.7944    0.0000 C   0  0  0  0  0  0  0  0  0  0  0  0
   10.8479   -5.2551    0.0000 C   0  0  0  0  0  0  0  0  0  0  0  0
   13.9949   -7.7970    0.0000 C   0  0  0  0  0  0  0  0  0  0  0  0
   11.5658   -6.4906    0.0000 C   0  0  0  0  0  0  0  0  0  0  0  0
   12.7552   -8.5075    0.0000 C   0  0  0  0  0  0  0  0  0  0  0  0
  2  1  1  1  0  0  0
  2  3  1  6  0  0  0
  5  4  1  0  0  0  0
  4  6  1  0  0  0  0
  2  5  1  0  0  0  0
  8  2  1  0  0  0  0
  7  6  1  0  0  0  0
  7  8  1  0  0  0  0
 11  7  1  1  0  0  0
  8  9  1  1  0  0  0
 10  9  1  0  0  0  0
 12 10  1  0  0  0  0
 11 12  1  0  0  0  0
 11 14  1  0  0  0  0
 12 13  1  0  0  0  0
 13 16  1  0  0  0  0
 14 15  1  0  0  0  0
 15 16  2  0  0  0  0
 15 20  1  0  0  0  0
 16 17  1  0  0  0  0
 17 18  2  0  0  0  0
 18 19  1  0  0  0  0
 19 20  1  0  0  0  0
 21 22  2  0  0  0  0
 22 23  1  0  0  0  0
 23 24  2  0  0  0  0
 24 25  1  0  0  0  0
 25 26  2  0  0  0  0
 26 21  1  0  0  0  0
 18 21  1  0  0  0  0
 10 27  1  1  0  0  0
 27 28  1  0  0  0  0
 28 29  1  0  0  0  0
 28 30  2  0  0  0  0
 29 31  2  0  0  0  0
 31 32  1  0  0  0  0
 32 33  2  0  0  0  0
 33 34  1  0  0  0  0
 34 35  2  0  0  0  0
 35 29  1  0  0  0  0
 36 37  3  0  0  0  0
 33 36  1  0  0  0  0
 20 38  2  0  0  0  0
 14 39  1  1  0  0  0
  7 40  1  1  0  0  0
 12 41  1  1  0  0  0
  5 42  1  1  0  0  0
 42 43  1  0  0  0  0
 43 44  1  0  0  0  0
 43 45  2  0  0  0  0
  3 46  1  0  0  0  0
 46 47  1  0  0  0  0
 47 48  2  0  0  0  0
 47 49  1  0  0  0  0
 44 50  1  0  0  0  0
 49 51  1  0  0  0  0
 44 52  1  0  0  0  0
 49 53  1  0  0  0  0
M  END
> <From>
www.bindingDB.org

> <BindingDB Reactant_set_id>
51061807

> <Ligand InChI>
InChI=1S/C41H46N2O10/c1-22(2)35(45)49-21-40(6)29-18-31(52-37(47)25-12-10-24(19-42)11-13-25)41(7)34(39(29,5)15-14-30(40)51-36(46)23(3)4)33(44)32-28(53-41)17-27(50-38(32)48)26-9-8-16-43-20-26/h8-13,16-17,20,22-23,29-31,33-34,44H,14-15,18,21H2,1-7H3/t29-,30+,31+,33+,34-,39+,40+,41-/m1/s1

> <Ligand InChI Key>
LNHXCGUBABIYJG-XFMJBVJYSA-N

> <BindingDB MonomerID>
50433213

> <BindingDB Ligand Name>
CHEMBL2375702

> <Target Name>
Sterol O-acyltransferase 2

> <Target Source Organism According to Curator or DataSource>


> <Ki (nM)>


> <IC50 (nM)>
 6.5

> <Kd (nM)>


> <EC50 (nM)>


> <kon (M-1-s-1)>


> <koff (s-1)>


> <pH>


> <Temp (C)>


> <Curation/DataSource>
ChEMBL

> <Article DOI>
10.1016/j.bmcl.2013.02.088

> <BindingDB Entry DOI>
10.7270/Q20866P3

> <PMID>
23535327

> <PubChem AID>


> <Patent Number>


> <Authors>
Ohtawa, M; Yamazaki, H; Matsuda, D; Ohshiro, T; Rudel, LL; Omura, S; Tomoda, H; Nagamitsu, T

> <Institution>
Kitasato University

> <Link to Ligand in BindingDB>
http://www.bindingdb.org/bind/chemsearch/marvin/MolStructure.jsp?monomerid=50433213

> <Link to Target in BindingDB>
http://www.bindingdb.org/jsp/dbsearch/PrimarySearch_ki.jsp?energyterm=kJ/mole&tag=pol&polymerid=7773&target=Sterol+O-acyltransferase+2&column=ki&startPg=0&Increment=50&submit=Search

> <Link to Ligand-Target Pair in BindingDB>
http://www.bindingdb.org/jsp/dbsearch/PrimarySearch_ki.jsp?energyterm=kJ/mole&tag=r21&monomerid=50433213&enzyme=Sterol+O-acyltransferase+2&column=ki&startPg=0&Increment=50&submit=Search

> <Ligand HET ID in PDB>


> <PDB ID(s) for Ligand-Target Complex>


> <PubChem CID>
71602666

> <PubChem SID>
175445530

> <ChEBI ID of Ligand>


> <ChEMBL ID of Ligand>
CHEMBL2375702

> <DrugBank ID of Ligand>


> <IUPHAR_GRAC ID of Ligand>


> <KEGG ID of Ligand>


> <ZINC ID of Ligand>
ZINC68150017

> <Number of Protein Chains in Target (>1 implies a multichain complex)>
1

> <BindingDB Target Chain Sequence>
MEPGGARLRLQRTEGLGGERERQPCGDGNTETHRAPDLVQWTRHMEAVKAQLLEQAQGQLRELLDRAMREAIQSYPSQDKPLPPPPPGSLSRTQEPSLGKQKVFIIRKSLLDELMEVQHFRTIYHMFIAGLCVFIISTLAIDFIDEGRLLLEFDLLIFSFGQLPLALVTWVPMFLSTLLAPYQALRLWARGTWTQATGLGCALLAAHAVVLCALPVHVAVEHQLPPASRCVLVFEQVRFLMKSYSFLREAVPGTLRARRGEGIQAPSFSSYLYFLFCPTLIYRETYPRTPYVRWNYVAKNFAQALGCVLYACFILGRLCVPVFANMSREPFSTRALVLSILHATLPGIFMLLLIFFAFLHCWLNAFAEMLRFGDRMFYRDWWNSTSFSNYYRTWNVVVHDWLYSYVYQDGLRLLGARARGVAMLGVFLVSAVAHEYIFCFVLGFFYPVMLILFLVIGGMLNFMMHDQRTGPAWNVLMWTMLFLGQGIQVSLYCQEWYARRHCPLPQATFWGLVTPRSWSCHT

> <PDB ID(s) of Target Chain>


> <UniProt (SwissProt) Recommended Name of Target Chain>
Sterol O-acyltransferase 2

> <UniProt (SwissProt) Entry Name of Target Chain>
ACAT-2

> <UniProt (SwissProt) Primary ID of Target Chain>
O75908

> <UniProt (SwissProt) Secondary ID(s) of Target Chain>
F5H7W4 I6L9H9 Q4VB99 Q4VBA1 Q96TD4 Q9UNR2

> <UniProt (SwissProt) Alternative ID(s) of Target Chain>


> <UniProt (TrEMBL) Submitted Name of Target Chain>


> <UniProt (TrEMBL) Entry Name of Target Chain>


> <UniProt (TrEMBL) Primary ID of Target Chain>


> <UniProt (TrEMBL) Secondary ID(s) of Target Chain>


> <UniProt (TrEMBL) Alternative ID(s) of Target Chain>


$$$$

  Mrv0541 11241418062D          

 52 59  0  0  0  0            999 V2000
   17.1993   -4.0246    0.0000 C   0  0  0  0  0  0  0  0  0  0  0  0
   17.9120   -3.6076    0.0000 C   0  0  0  0  0  0  0  0  0  0  0  0
   18.6246   -4.0246    0.0000 C   0  0  1  0  0  0  0  0  0  0  0  0
   18.6257   -4.8504    0.0000 C   0  0  1  0  0  0  0  0  0  0  0  0
   19.3374   -5.2600    0.0000 C   0  0  0  0  0  0  0  0  0  0  0  0
   20.0526   -4.8485    0.0000 C   0  0  1  0  0  0  0  0  0  0  0  0
   19.3353   -3.6085    0.0000 C   0  0  2  0  0  0  0  0  0  0  0  0
   20.0472   -4.0250    0.0000 C   0  0  2  0  0  0  0  0  0  0  0  0
   20.7599   -3.6190    0.0000 O   0  0  0  0  0  0  0  0  0  0  0  0
   19.3361   -2.7859    0.0000 C   0  0  2  0  0  0  0  0  0  0  0  0
   17.9120   -5.2590    0.0000 C   0  0  1  0  0  0  0  0  0  0  0  0
   17.1993   -4.8504    0.0000 C   0  0  1  0  0  0  0  0  0  0  0  0
   16.4929   -5.2609    0.0000 O   0  0  0  0  0  0  0  0  0  0  0  0
   16.4930   -6.0818    0.0000 C   0  0  1  0  0  0  0  0  0  0  0  0
   17.2056   -6.4906    0.0000 O   0  0  0  0  0  0  0  0  0  0  0  0
   17.9182   -6.0783    0.0000 C   0  0  0  0  0  0  0  0  0  0  0  0
   20.0550   -2.3782    0.0000 C   0  0  0  0  0  0  0  0  0  0  0  0
   20.7654   -2.7963    0.0000 C   0  0  0  0  0  0  0  0  0  0  0  0
   21.4788   -2.3924    0.0000 C   0  0  0  0  0  0  0  0  0  0  0  0
   21.4879   -1.5688    0.0000 C   0  0  0  0  0  0  0  0  0  0  0  0
   20.7775   -1.1506    0.0000 O   0  0  0  0  0  0  0  0  0  0  0  0
   20.0580   -1.5563    0.0000 C   0  0  0  0  0  0  0  0  0  0  0  0
   19.3458   -1.1383    0.0000 O   0  0  0  0  0  0  0  0  0  0  0  0
   18.6228   -2.3699    0.0000 O   0  0  0  0  0  0  0  0  0  0  0  0
   20.0394   -3.1988    0.0000 C   0  0  0  0  0  0  0  0  0  0  0  0
   20.7687   -5.2596    0.0000 O   0  0  0  0  0  0  0  0  0  0  0  0
   18.6172   -3.1988    0.0000 C   0  0  0  0  0  0  0  0  0  0  0  0
   17.9041   -4.4332    0.0000 C   0  0  0  0  0  0  0  0  0  0  0  0
   21.4829   -4.8449    0.0000 C   0  0  0  0  0  0  0  0  0  0  0  0
   22.1990   -5.2560    0.0000 C   0  0  0  0  0  0  0  0  0  0  0  0
   21.4808   -4.0191    0.0000 O   0  0  0  0  0  0  0  0  0  0  0  0
   22.1990   -6.0817    0.0000 C   0  0  0  0  0  0  0  0  0  0  0  0
   22.9143   -6.4927    0.0000 C   0  0  0  0  0  0  0  0  0  0  0  0
   23.6294   -6.0780    0.0000 C   0  0  0  0  0  0  0  0  0  0  0  0
   23.6247   -5.2480    0.0000 C   0  0  0  0  0  0  0  0  0  0  0  0
   22.9088   -4.8407    0.0000 C   0  0  0  0  0  0  0  0  0  0  0  0
   22.2074   -1.1636    0.0000 C   0  0  0  0  0  0  0  0  0  0  0  0
   22.9188   -1.5852    0.0000 C   0  0  0  0  0  0  0  0  0  0  0  0
   23.6374   -1.1800    0.0000 N   0  0  0  0  0  0  0  0  0  0  0  0
   23.6459   -0.3534    0.0000 C   0  0  0  0  0  0  0  0  0  0  0  0
   22.9298    0.0671    0.0000 C   0  0  0  0  0  0  0  0  0  0  0  0
   22.2140   -0.3412    0.0000 C   0  0  0  0  0  0  0  0  0  0  0  0
   15.7785   -6.4958    0.0000 C   0  0  0  0  0  0  0  0  0  0  0  0
   15.0658   -6.0810    0.0000 C   0  0  0  0  0  0  0  0  0  0  0  0
   14.3518   -6.4943    0.0000 C   0  0  0  0  0  0  0  0  0  0  0  0
   14.3526   -7.3209    0.0000 C   0  0  0  0  0  0  0  0  0  0  0  0
   15.0735   -7.7326    0.0000 C   0  0  0  0  0  0  0  0  0  0  0  0
   15.7845   -7.3169    0.0000 C   0  0  0  0  0  0  0  0  0  0  0  0
   24.3451   -6.4838    0.0000 C   0  0  0  0  0  0  0  0  0  0  0  0
   25.0618   -6.8939    0.0000 N   0  0  0  0  0  0  0  0  0  0  0  0
   16.5022   -7.7252    0.0000 C   0  0  0  0  0  0  0  0  0  0  0  0
   13.6387   -7.7358    0.0000 C   0  0  0  0  0  0  0  0  0  0  0  0
 12  1  1  0  0  0  0
  1  2  1  0  0  0  0
  4 11  1  0  0  0  0
  3  2  1  0  0  0  0
  3  4  1  0  0  0  0
  7  3  1  1  0  0  0
  4  5  1  1  0  0  0
  6  5  1  0  0  0  0
  8  6  1  0  0  0  0
  7  8  1  0  0  0  0
  7 10  1  0  0  0  0
  8  9  1  0  0  0  0
  9 18  1  0  0  0  0
 10 17  1  0  0  0  0
 11 12  1  0  0  0  0
 11 16  1  0  0  0  0
 12 13  1  1  0  0  0
 14 13  1  0  0  0  0
 14 15  1  0  0  0  0
 15 16  1  0  0  0  0
 17 18  2  0  0  0  0
 17 22  1  0  0  0  0
 18 19  1  0  0  0  0
 19 20  2  0  0  0  0
 20 21  1  0  0  0  0
 21 22  1  0  0  0  0
 22 23  2  0  0  0  0
 10 24  1  1  0  0  0
  8 25  1  1  0  0  0
  6 26  1  1  0  0  0
  3 27  1  1  0  0  0
 11 28  1  1  0  0  0
 26 29  1  0  0  0  0
 29 30  1  0  0  0  0
 29 31  2  0  0  0  0
 30 32  2  0  0  0  0
 32 33  1  0  0  0  0
 33 34  2  0  0  0  0
 34 35  1  0  0  0  0
 35 36  2  0  0  0  0
 36 30  1  0  0  0  0
 37 38  2  0  0  0  0
 38 39  1  0  0  0  0
 39 40  2  0  0  0  0
 40 41  1  0  0  0  0
 41 42  2  0  0  0  0
 42 37  1  0  0  0  0
 20 37  1  0  0  0  0
 14 43  1  1  0  0  0
 43 44  2  0  0  0  0
 44 45  1  0  0  0  0
 45 46  2  0  0  0  0
 46 47  1  0  0  0  0
 47 48  2  0  0  0  0
 48 43  1  0  0  0  0
 49 50  3  0  0  0  0
 34 49  1  0  0  0  0
 48 51  1  0  0  0  0
 46 52  1  0  0  0  0
M  END
> <From>
www.bindingDB.org

> <BindingDB Reactant_set_id>
51068462

> <Ligand InChI>
InChI=1S/C42H42N2O8/c1-23-8-13-28(24(2)17-23)39-48-22-41(4)31-19-33(50-37(46)26-11-9-25(20-43)10-12-26)42(5)36(40(31,3)15-14-32(41)51-39)35(45)34-30(52-42)18-29(49-38(34)47)27-7-6-16-44-21-27/h6-13,16-18,21,31-33,35-36,39,45H,14-15,19,22H2,1-5H3/t31-,32+,33+,35+,36-,39-,40+,41+,42-/m1/s1

> <Ligand InChI Key>
WVIAPFYMQGPOBJ-LRZAQUMYSA-N

> <BindingDB MonomerID>
50436347

> <BindingDB Ligand Name>
CHEMBL2398812

> <Target Name>
Sterol O-acyltransferase 2

> <Target Source Organism According to Curator or DataSource>


> <Ki (nM)>


> <IC50 (nM)>
 6.6

> <Kd (nM)>


> <EC50 (nM)>


> <kon (M-1-s-1)>


> <koff (s-1)>


> <pH>


> <Temp (C)>


> <Curation/DataSource>
ChEMBL

> <Article DOI>
10.1016/j.bmcl.2013.04.075

> <BindingDB Entry DOI>
10.7270/Q2WD41Z9

> <PMID>
23711919

> <PubChem AID>


> <Patent Number>


> <Authors>
Ohtawa, M; Yamazaki, H; Ohte, S; Matsuda, D; Ohshiro, T; Rudel, LL; Omura, S; Tomoda, H; Nagamitsu, T

> <Institution>
Kitasato University

> <Link to Ligand in BindingDB>
http://www.bindingdb.org/bind/chemsearch/marvin/MolStructure.jsp?monomerid=50436347

> <Link to Target in BindingDB>
http://www.bindingdb.org/jsp/dbsearch/PrimarySearch_ki.jsp?energyterm=kJ/mole&tag=pol&polymerid=7773&target=Sterol+O-acyltransferase+2&column=ki&startPg=0&Increment=50&submit=Search

> <Link to Ligand-Target Pair in BindingDB>
http://www.bindingdb.org/jsp/dbsearch/PrimarySearch_ki.jsp?energyterm=kJ/mole&tag=r21&monomerid=50436347&enzyme=Sterol+O-acyltransferase+2&column=ki&startPg=0&Increment=50&submit=Search

> <Ligand HET ID in PDB>


> <PDB ID(s) for Ligand-Target Complex>


> <PubChem CID>
71683133

> <PubChem SID>
175448664

> <ChEBI ID of Ligand>


> <ChEMBL ID of Ligand>
CHEMBL2398812

> <DrugBank ID of Ligand>


> <IUPHAR_GRAC ID of Ligand>


> <KEGG ID of Ligand>


> <ZINC ID of Ligand>
ZINC96272259

> <Number of Protein Chains in Target (>1 implies a multichain complex)>
1

> <BindingDB Target Chain Sequence>
MEPGGARLRLQRTEGLGGERERQPCGDGNTETHRAPDLVQWTRHMEAVKAQLLEQAQGQLRELLDRAMREAIQSYPSQDKPLPPPPPGSLSRTQEPSLGKQKVFIIRKSLLDELMEVQHFRTIYHMFIAGLCVFIISTLAIDFIDEGRLLLEFDLLIFSFGQLPLALVTWVPMFLSTLLAPYQALRLWARGTWTQATGLGCALLAAHAVVLCALPVHVAVEHQLPPASRCVLVFEQVRFLMKSYSFLREAVPGTLRARRGEGIQAPSFSSYLYFLFCPTLIYRETYPRTPYVRWNYVAKNFAQALGCVLYACFILGRLCVPVFANMSREPFSTRALVLSILHATLPGIFMLLLIFFAFLHCWLNAFAEMLRFGDRMFYRDWWNSTSFSNYYRTWNVVVHDWLYSYVYQDGLRLLGARARGVAMLGVFLVSAVAHEYIFCFVLGFFYPVMLILFLVIGGMLNFMMHDQRTGPAWNVLMWTMLFLGQGIQVSLYCQEWYARRHCPLPQATFWGLVTPRSWSCHT

> <PDB ID(s) of Target Chain>


> <UniProt (SwissProt) Recommended Name of Target Chain>
Sterol O-acyltransferase 2

> <UniProt (SwissProt) Entry Name of Target Chain>
ACAT-2

> <UniProt (SwissProt) Primary ID of Target Chain>
O75908

> <UniProt (SwissProt) Secondary ID(s) of Target Chain>
F5H7W4 I6L9H9 Q4VB99 Q4VBA1 Q96TD4 Q9UNR2

> <UniProt (SwissProt) Alternative ID(s) of Target Chain>


> <UniProt (TrEMBL) Submitted Name of Target Chain>


> <UniProt (TrEMBL) Entry Name of Target Chain>


> <UniProt (TrEMBL) Primary ID of Target Chain>


> <UniProt (TrEMBL) Secondary ID(s) of Target Chain>


> <UniProt (TrEMBL) Alternative ID(s) of Target Chain>


$$$$

  Mrv0541 11241418062D          

 51 58  0  0  0  0            999 V2000
    4.5376   -4.6211    0.0000 C   0  0  0  0  0  0  0  0  0  0  0  0
    5.2504   -4.2040    0.0000 C   0  0  0  0  0  0  0  0  0  0  0  0
    5.9631   -4.6211    0.0000 C   0  0  1  0  0  0  0  0  0  0  0  0
    5.9641   -5.4469    0.0000 C   0  0  1  0  0  0  0  0  0  0  0  0
    6.6758   -5.8566    0.0000 C   0  0  0  0  0  0  0  0  0  0  0  0
    7.3910   -5.4451    0.0000 C   0  0  1  0  0  0  0  0  0  0  0  0
    6.6738   -4.2050    0.0000 C   0  0  2  0  0  0  0  0  0  0  0  0
    7.3857   -4.6215    0.0000 C   0  0  2  0  0  0  0  0  0  0  0  0
    8.0985   -4.2155    0.0000 O   0  0  0  0  0  0  0  0  0  0  0  0
    6.6746   -3.3824    0.0000 C   0  0  2  0  0  0  0  0  0  0  0  0
    5.2504   -5.8556    0.0000 C   0  0  1  0  0  0  0  0  0  0  0  0
    4.5376   -5.4469    0.0000 C   0  0  1  0  0  0  0  0  0  0  0  0
    3.8313   -5.8575    0.0000 O   0  0  0  0  0  0  0  0  0  0  0  0
    3.8314   -6.6784    0.0000 C   0  0  1  0  0  0  0  0  0  0  0  0
    4.5441   -7.0872    0.0000 O   0  0  0  0  0  0  0  0  0  0  0  0
    5.2566   -6.6749    0.0000 C   0  0  0  0  0  0  0  0  0  0  0  0
    7.3936   -2.9747    0.0000 C   0  0  0  0  0  0  0  0  0  0  0  0
    8.1040   -3.3928    0.0000 C   0  0  0  0  0  0  0  0  0  0  0  0
    8.8173   -2.9889    0.0000 C   0  0  0  0  0  0  0  0  0  0  0  0
    8.8265   -2.1652    0.0000 C   0  0  0  0  0  0  0  0  0  0  0  0
    8.1161   -1.7471    0.0000 O   0  0  0  0  0  0  0  0  0  0  0  0
    7.3965   -2.1527    0.0000 C   0  0  0  0  0  0  0  0  0  0  0  0
    6.6842   -1.7348    0.0000 O   0  0  0  0  0  0  0  0  0  0  0  0
    5.9612   -2.9664    0.0000 O   0  0  0  0  0  0  0  0  0  0  0  0
    7.3779   -3.7953    0.0000 C   0  0  0  0  0  0  0  0  0  0  0  0
    8.1073   -5.8562    0.0000 O   0  0  0  0  0  0  0  0  0  0  0  0
    5.9557   -3.7953    0.0000 C   0  0  0  0  0  0  0  0  0  0  0  0
    5.2425   -5.0298    0.0000 C   0  0  0  0  0  0  0  0  0  0  0  0
    8.8213   -5.4414    0.0000 C   0  0  0  0  0  0  0  0  0  0  0  0
    9.5376   -5.8525    0.0000 C   0  0  0  0  0  0  0  0  0  0  0  0
    8.8193   -4.6157    0.0000 O   0  0  0  0  0  0  0  0  0  0  0  0
    9.5376   -6.6783    0.0000 C   0  0  0  0  0  0  0  0  0  0  0  0
   10.2529   -7.0893    0.0000 C   0  0  0  0  0  0  0  0  0  0  0  0
   10.9680   -6.6746    0.0000 C   0  0  0  0  0  0  0  0  0  0  0  0
   10.9632   -5.8445    0.0000 C   0  0  0  0  0  0  0  0  0  0  0  0
   10.2474   -5.4372    0.0000 C   0  0  0  0  0  0  0  0  0  0  0  0
    9.5460   -1.7600    0.0000 C   0  0  0  0  0  0  0  0  0  0  0  0
   10.2573   -2.1816    0.0000 C   0  0  0  0  0  0  0  0  0  0  0  0
   10.9760   -1.7764    0.0000 N   0  0  0  0  0  0  0  0  0  0  0  0
   10.9845   -0.9497    0.0000 C   0  0  0  0  0  0  0  0  0  0  0  0
   10.2683   -0.5300    0.0000 C   0  0  0  0  0  0  0  0  0  0  0  0
    9.5526   -0.9377    0.0000 C   0  0  0  0  0  0  0  0  0  0  0  0
    3.1168   -7.0924    0.0000 C   0  0  0  0  0  0  0  0  0  0  0  0
    2.4042   -6.6776    0.0000 C   0  0  0  0  0  0  0  0  0  0  0  0
    1.6902   -7.0909    0.0000 C   0  0  0  0  0  0  0  0  0  0  0  0
    1.6910   -7.9175    0.0000 C   0  0  0  0  0  0  0  0  0  0  0  0
    2.4118   -8.3292    0.0000 C   0  0  0  0  0  0  0  0  0  0  0  0
    3.1229   -7.9135    0.0000 C   0  0  0  0  0  0  0  0  0  0  0  0
   11.6837   -7.0804    0.0000 C   0  0  0  0  0  0  0  0  0  0  0  0
   12.4005   -7.4905    0.0000 N   0  0  0  0  0  0  0  0  0  0  0  0
    3.8407   -8.3218    0.0000 F   0  0  0  0  0  0  0  0  0  0  0  0
 12  1  1  0  0  0  0
  1  2  1  0  0  0  0
  4 11  1  0  0  0  0
  3  2  1  0  0  0  0
  3  4  1  0  0  0  0
  7  3  1  1  0  0  0
  4  5  1  1  0  0  0
  6  5  1  0  0  0  0
  8  6  1  0  0  0  0
  7  8  1  0  0  0  0
  7 10  1  0  0  0  0
  8  9  1  0  0  0  0
  9 18  1  0  0  0  0
 10 17  1  0  0  0  0
 11 12  1  0  0  0  0
 11 16  1  0  0  0  0
 12 13  1  1  0  0  0
 14 13  1  0  0  0  0
 14 15  1  0  0  0  0
 15 16  1  0  0  0  0
 17 18  2  0  0  0  0
 17 22  1  0  0  0  0
 18 19  1  0  0  0  0
 19 20  2  0  0  0  0
 20 21  1  0  0  0  0
 21 22  1  0  0  0  0
 22 23  2  0  0  0  0
 10 24  1  1  0  0  0
  8 25  1  1  0  0  0
  6 26  1  1  0  0  0
  3 27  1  1  0  0  0
 11 28  1  1  0  0  0
 26 29  1  0  0  0  0
 29 30  1  0  0  0  0
 29 31  2  0  0  0  0
 30 32  2  0  0  0  0
 32 33  1  0  0  0  0
 33 34  2  0  0  0  0
 34 35  1  0  0  0  0
 35 36  2  0  0  0  0
 36 30  1  0  0  0  0
 37 38  2  0  0  0  0
 38 39  1  0  0  0  0
 39 40  2  0  0  0  0
 40 41  1  0  0  0  0
 41 42  2  0  0  0  0
 42 37  1  0  0  0  0
 20 37  1  0  0  0  0
 14 43  1  1  0  0  0
 43 44  2  0  0  0  0
 44 45  1  0  0  0  0
 45 46  2  0  0  0  0
 46 47  1  0  0  0  0
 47 48  2  0  0  0  0
 48 43  1  0  0  0  0
 49 50  3  0  0  0  0
 34 49  1  0  0  0  0
 48 51  1  0  0  0  0
M  END
> <From>
www.bindingDB.org

> <BindingDB Reactant_set_id>
51068463

> <Ligand InChI>
InChI=1S/C40H37FN2O8/c1-38-15-14-30-39(2,21-47-37(50-30)25-8-4-5-9-26(25)41)29(38)18-31(49-35(45)23-12-10-22(19-42)11-13-23)40(3)34(38)33(44)32-28(51-40)17-27(48-36(32)46)24-7-6-16-43-20-24/h4-13,16-17,20,29-31,33-34,37,44H,14-15,18,21H2,1-3H3/t29-,30+,31+,33+,34-,37-,38+,39+,40-/m1/s1

> <Ligand InChI Key>
ZIJYBRHNQICJRS-WVGFPPCDSA-N

> <BindingDB MonomerID>
50436348

> <BindingDB Ligand Name>
CHEMBL2398811

> <Target Name>
Sterol O-acyltransferase 2

> <Target Source Organism According to Curator or DataSource>


> <Ki (nM)>


> <IC50 (nM)>
 6.8

> <Kd (nM)>


> <EC50 (nM)>


> <kon (M-1-s-1)>


> <koff (s-1)>


> <pH>


> <Temp (C)>


> <Curation/DataSource>
ChEMBL

> <Article DOI>
10.1016/j.bmcl.2013.04.075

> <BindingDB Entry DOI>
10.7270/Q2WD41Z9

> <PMID>
23711919

> <PubChem AID>


> <Patent Number>


> <Authors>
Ohtawa, M; Yamazaki, H; Ohte, S; Matsuda, D; Ohshiro, T; Rudel, LL; Omura, S; Tomoda, H; Nagamitsu, T

> <Institution>
Kitasato University

> <Link to Ligand in BindingDB>
http://www.bindingdb.org/bind/chemsearch/marvin/MolStructure.jsp?monomerid=50436348

> <Link to Target in BindingDB>
http://www.bindingdb.org/jsp/dbsearch/PrimarySearch_ki.jsp?energyterm=kJ/mole&tag=pol&polymerid=7773&target=Sterol+O-acyltransferase+2&column=ki&startPg=0&Increment=50&submit=Search

> <Link to Ligand-Target Pair in BindingDB>
http://www.bindingdb.org/jsp/dbsearch/PrimarySearch_ki.jsp?energyterm=kJ/mole&tag=r21&monomerid=50436348&enzyme=Sterol+O-acyltransferase+2&column=ki&startPg=0&Increment=50&submit=Search

> <Ligand HET ID in PDB>


> <PDB ID(s) for Ligand-Target Complex>


> <PubChem CID>
71683132

> <PubChem SID>
175448665

> <ChEBI ID of Ligand>


> <ChEMBL ID of Ligand>
CHEMBL2398811

> <DrugBank ID of Ligand>


> <IUPHAR_GRAC ID of Ligand>


> <KEGG ID of Ligand>


> <ZINC ID of Ligand>
ZINC96272260

> <Number of Protein Chains in Target (>1 implies a multichain complex)>
1

> <BindingDB Target Chain Sequence>
MEPGGARLRLQRTEGLGGERERQPCGDGNTETHRAPDLVQWTRHMEAVKAQLLEQAQGQLRELLDRAMREAIQSYPSQDKPLPPPPPGSLSRTQEPSLGKQKVFIIRKSLLDELMEVQHFRTIYHMFIAGLCVFIISTLAIDFIDEGRLLLEFDLLIFSFGQLPLALVTWVPMFLSTLLAPYQALRLWARGTWTQATGLGCALLAAHAVVLCALPVHVAVEHQLPPASRCVLVFEQVRFLMKSYSFLREAVPGTLRARRGEGIQAPSFSSYLYFLFCPTLIYRETYPRTPYVRWNYVAKNFAQALGCVLYACFILGRLCVPVFANMSREPFSTRALVLSILHATLPGIFMLLLIFFAFLHCWLNAFAEMLRFGDRMFYRDWWNSTSFSNYYRTWNVVVHDWLYSYVYQDGLRLLGARARGVAMLGVFLVSAVAHEYIFCFVLGFFYPVMLILFLVIGGMLNFMMHDQRTGPAWNVLMWTMLFLGQGIQVSLYCQEWYARRHCPLPQATFWGLVTPRSWSCHT

> <PDB ID(s) of Target Chain>


> <UniProt (SwissProt) Recommended Name of Target Chain>
Sterol O-acyltransferase 2

> <UniProt (SwissProt) Entry Name of Target Chain>
ACAT-2

> <UniProt (SwissProt) Primary ID of Target Chain>
O75908

> <UniProt (SwissProt) Secondary ID(s) of Target Chain>
F5H7W4 I6L9H9 Q4VB99 Q4VBA1 Q96TD4 Q9UNR2

> <UniProt (SwissProt) Alternative ID(s) of Target Chain>


> <UniProt (TrEMBL) Submitted Name of Target Chain>


> <UniProt (TrEMBL) Entry Name of Target Chain>


> <UniProt (TrEMBL) Primary ID of Target Chain>


> <UniProt (TrEMBL) Secondary ID(s) of Target Chain>


> <UniProt (TrEMBL) Alternative ID(s) of Target Chain>


$$$$

  Mrv0541 11241417102D          

 48 53  0  0  0  0            999 V2000
    2.6583  -19.5540    0.0000 C   0  0  0  0  0  0  0  0  0  0  0  0
    2.2500  -18.8414    0.0000 C   0  0  2  0  0  0  0  0  0  0  0  0
    1.8371  -19.5513    0.0000 C   0  0  0  0  0  0  0  0  0  0  0  0
    1.5417  -17.6082    0.0000 C   0  0  0  0  0  0  0  0  0  0  0  0
    1.5417  -18.4332    0.0000 C   0  0  2  0  0  0  0  0  0  0  0  0
    2.2537  -17.1914    0.0000 C   0  0  0  0  0  0  0  0  0  0  0  0
    2.9656  -17.6082    0.0000 C   0  0  1  0  0  0  0  0  0  0  0  0
    2.9667  -18.4332    0.0000 C   0  0  1  0  0  0  0  0  0  0  0  0
    3.6778  -18.8424    0.0000 C   0  0  0  0  0  0  0  0  0  0  0  0
    4.3923  -18.4313    0.0000 C   0  0  1  0  0  0  0  0  0  0  0  0
    3.6756  -17.1924    0.0000 C   0  0  2  0  0  0  0  0  0  0  0  0
    4.3909  -17.6109    0.0000 C   0  0  2  0  0  0  0  0  0  0  0  0
    5.1069  -17.2030    0.0000 O   0  0  0  0  0  0  0  0  0  0  0  0
    3.6765  -16.3661    0.0000 C   0  0  2  0  0  0  0  0  0  0  0  0
    4.3988  -15.9565    0.0000 C   0  0  0  0  0  0  0  0  0  0  0  0
    5.1169  -16.3787    0.0000 C   0  0  0  0  0  0  0  0  0  0  0  0
    5.8376  -15.9702    0.0000 C   0  0  0  0  0  0  0  0  0  0  0  0
    5.8464  -15.1379    0.0000 C   0  0  0  0  0  0  0  0  0  0  0  0
    5.1283  -14.7157    0.0000 O   0  0  0  0  0  0  0  0  0  0  0  0
    4.4013  -15.1259    0.0000 C   0  0  0  0  0  0  0  0  0  0  0  0
    6.5602  -14.7336    0.0000 C   0  0  0  0  0  0  0  0  0  0  0  0
    7.2710  -15.1545    0.0000 C   0  0  0  0  0  0  0  0  0  0  0  0
    7.9888  -14.7492    0.0000 N   0  0  0  0  0  0  0  0  0  0  0  0
    7.9969  -13.9234    0.0000 C   0  0  0  0  0  0  0  0  0  0  0  0
    7.2813  -13.5045    0.0000 C   0  0  0  0  0  0  0  0  0  0  0  0
    6.5665  -13.9120    0.0000 C   0  0  0  0  0  0  0  0  0  0  0  0
    3.6896  -14.7088    0.0000 O   0  0  0  0  0  0  0  0  0  0  0  0
    5.1068  -18.8437    0.0000 O   0  0  0  0  0  0  0  0  0  0  0  0
    5.8212  -18.4311    0.0000 C   0  0  0  0  0  0  0  0  0  0  0  0
    6.5358  -18.8435    0.0000 C   0  0  0  0  0  0  0  0  0  0  0  0
    5.8211  -17.6061    0.0000 O   0  0  0  0  0  0  0  0  0  0  0  0
    0.8278  -18.8467    0.0000 O   0  0  0  0  0  0  0  0  0  0  0  0
    0.1128  -18.4352    0.0000 C   0  0  0  0  0  0  0  0  0  0  0  0
   -0.6071  -18.8487    0.0000 C   0  0  0  0  0  0  0  0  0  0  0  0
    0.1116  -17.6102    0.0000 O   0  0  0  0  0  0  0  0  0  0  0  0
    2.2435  -20.2671    0.0000 O   0  0  0  0  0  0  0  0  0  0  0  0
    2.6538  -20.9829    0.0000 C   0  0  0  0  0  0  0  0  0  0  0  0
    2.2390  -21.6960    0.0000 C   0  0  0  0  0  0  0  0  0  0  0  0
    3.4787  -20.9855    0.0000 O   0  0  0  0  0  0  0  0  0  0  0  0
    2.9638  -15.9504    0.0000 O   0  0  0  0  0  0  0  0  0  0  0  0
    2.9583  -16.7832    0.0000 C   0  0  0  0  0  0  0  0  0  0  0  0
    4.3832  -16.7832    0.0000 C   0  0  0  0  0  0  0  0  0  0  0  0
    6.5306  -19.6675    0.0000 C   0  0  0  0  0  0  0  0  0  0  0  0
    7.2443  -20.0798    0.0000 C   0  0  0  0  0  0  0  0  0  0  0  0
    7.9596  -19.6672    0.0000 C   0  0  0  0  0  0  0  0  0  0  0  0
    7.9569  -18.8380    0.0000 C   0  0  0  0  0  0  0  0  0  0  0  0
    7.2427  -18.4293    0.0000 C   0  0  0  0  0  0  0  0  0  0  0  0
    8.6699  -18.4229    0.0000 Cl  0  0  0  0  0  0  0  0  0  0  0  0
  2  1  1  6  0  0  0
  2  3  1  1  0  0  0
  5  4  1  0  0  0  0
  4  6  1  0  0  0  0
  2  5  1  0  0  0  0
  8  2  1  0  0  0  0
  7  6  1  0  0  0  0
  7  8  1  0  0  0  0
 11  7  1  1  0  0  0
  8  9  1  1  0  0  0
 10  9  1  0  0  0  0
 12 10  1  0  0  0  0
 11 12  1  0  0  0  0
 11 14  1  0  0  0  0
 12 13  1  0  0  0  0
 13 16  1  0  0  0  0
 14 15  1  0  0  0  0
 15 16  2  0  0  0  0
 15 20  1  0  0  0  0
 16 17  1  0  0  0  0
 17 18  2  0  0  0  0
 18 19  1  0  0  0  0
 19 20  1  0  0  0  0
 21 22  2  0  0  0  0
 22 23  1  0  0  0  0
 23 24  2  0  0  0  0
 24 25  1  0  0  0  0
 25 26  2  0  0  0  0
 26 21  1  0  0  0  0
 18 21  1  0  0  0  0
 20 27  2  0  0  0  0
 10 28  1  1  0  0  0
 28 29  1  0  0  0  0
 29 30  1  0  0  0  0
 29 31  2  0  0  0  0
  5 32  1  1  0  0  0
 32 33  1  0  0  0  0
 33 34  1  0  0  0  0
 33 35  2  0  0  0  0
  1 36  1  0  0  0  0
 36 37  1  0  0  0  0
 37 38  1  0  0  0  0
 37 39  2  0  0  0  0
 14 40  1  1  0  0  0
  7 41  1  1  0  0  0
 12 42  1  1  0  0  0
 30 43  2  0  0  0  0
 43 44  1  0  0  0  0
 44 45  2  0  0  0  0
 45 46  1  0  0  0  0
 46 47  2  0  0  0  0
 47 30  1  0  0  0  0
 46 48  1  0  0  0  0
M  END
> <From>
www.bindingDB.org

> <BindingDB Reactant_set_id>
51053279

> <Ligand InChI>
InChI=1S/C36H38ClNO10/c1-19(39)44-18-35(4)26-16-28(47-32(42)21-8-6-10-23(37)14-21)36(5)31(34(26,3)12-11-27(35)45-20(2)40)30(41)29-25(48-36)15-24(46-33(29)43)22-9-7-13-38-17-22/h6-10,13-15,17,26-28,30-31,41H,11-12,16,18H2,1-5H3/t26-,27+,28+,30+,31-,34+,35+,36-/m1/s1

> <Ligand InChI Key>
XJJYQQGEWILHAT-HRSZXCBJSA-N

> <BindingDB MonomerID>
50429589

> <BindingDB Ligand Name>
CHEMBL2334200

> <Target Name>
Sterol O-acyltransferase 2

> <Target Source Organism According to Curator or DataSource>


> <Ki (nM)>


> <IC50 (nM)>
 7.0

> <Kd (nM)>


> <EC50 (nM)>


> <kon (M-1-s-1)>


> <koff (s-1)>


> <pH>


> <Temp (C)>


> <Curation/DataSource>
ChEMBL

> <Article DOI>
10.1016/j.bmcl.2012.12.099

> <BindingDB Entry DOI>
10.7270/Q2P270HW

> <PMID>
23369538

> <PubChem AID>


> <Patent Number>


> <Authors>
Ohtawa, M; Yamazaki, H; Ohte, S; Matsuda, D; Ohshiro, T; Rudel, LL; Omura, S; Tomoda, H; Nagamitsu, T

> <Institution>
Kitasato University

> <Link to Ligand in BindingDB>
http://www.bindingdb.org/bind/chemsearch/marvin/MolStructure.jsp?monomerid=50429589

> <Link to Target in BindingDB>
http://www.bindingdb.org/jsp/dbsearch/PrimarySearch_ki.jsp?energyterm=kJ/mole&tag=pol&polymerid=7773&target=Sterol+O-acyltransferase+2&column=ki&startPg=0&Increment=50&submit=Search

> <Link to Ligand-Target Pair in BindingDB>
http://www.bindingdb.org/jsp/dbsearch/PrimarySearch_ki.jsp?energyterm=kJ/mole&tag=r21&monomerid=50429589&enzyme=Sterol+O-acyltransferase+2&column=ki&startPg=0&Increment=50&submit=Search

> <Ligand HET ID in PDB>


> <PDB ID(s) for Ligand-Target Complex>


> <PubChem CID>
71561176

> <PubChem SID>
164158464

> <ChEBI ID of Ligand>


> <ChEMBL ID of Ligand>
CHEMBL2334200

> <DrugBank ID of Ligand>


> <IUPHAR_GRAC ID of Ligand>


> <KEGG ID of Ligand>


> <ZINC ID of Ligand>
ZINC95589654

> <Number of Protein Chains in Target (>1 implies a multichain complex)>
1

> <BindingDB Target Chain Sequence>
MEPGGARLRLQRTEGLGGERERQPCGDGNTETHRAPDLVQWTRHMEAVKAQLLEQAQGQLRELLDRAMREAIQSYPSQDKPLPPPPPGSLSRTQEPSLGKQKVFIIRKSLLDELMEVQHFRTIYHMFIAGLCVFIISTLAIDFIDEGRLLLEFDLLIFSFGQLPLALVTWVPMFLSTLLAPYQALRLWARGTWTQATGLGCALLAAHAVVLCALPVHVAVEHQLPPASRCVLVFEQVRFLMKSYSFLREAVPGTLRARRGEGIQAPSFSSYLYFLFCPTLIYRETYPRTPYVRWNYVAKNFAQALGCVLYACFILGRLCVPVFANMSREPFSTRALVLSILHATLPGIFMLLLIFFAFLHCWLNAFAEMLRFGDRMFYRDWWNSTSFSNYYRTWNVVVHDWLYSYVYQDGLRLLGARARGVAMLGVFLVSAVAHEYIFCFVLGFFYPVMLILFLVIGGMLNFMMHDQRTGPAWNVLMWTMLFLGQGIQVSLYCQEWYARRHCPLPQATFWGLVTPRSWSCHT

> <PDB ID(s) of Target Chain>


> <UniProt (SwissProt) Recommended Name of Target Chain>
Sterol O-acyltransferase 2

> <UniProt (SwissProt) Entry Name of Target Chain>
ACAT-2

> <UniProt (SwissProt) Primary ID of Target Chain>
O75908

> <UniProt (SwissProt) Secondary ID(s) of Target Chain>
F5H7W4 I6L9H9 Q4VB99 Q4VBA1 Q96TD4 Q9UNR2

> <UniProt (SwissProt) Alternative ID(s) of Target Chain>


> <UniProt (TrEMBL) Submitted Name of Target Chain>


> <UniProt (TrEMBL) Entry Name of Target Chain>


> <UniProt (TrEMBL) Primary ID of Target Chain>


> <UniProt (TrEMBL) Secondary ID(s) of Target Chain>


> <UniProt (TrEMBL) Alternative ID(s) of Target Chain>


$$$$

  Mrv0541 11241418062D          

 49 56  0  0  0  0            999 V2000
    9.3834   -4.4456    0.0000 C   0  0  0  0  0  0  0  0  0  0  0  0
   10.0960   -4.0286    0.0000 C   0  0  0  0  0  0  0  0  0  0  0  0
   10.8087   -4.4456    0.0000 C   0  0  1  0  0  0  0  0  0  0  0  0
   10.8098   -5.2714    0.0000 C   0  0  1  0  0  0  0  0  0  0  0  0
   11.5214   -5.6811    0.0000 C   0  0  0  0  0  0  0  0  0  0  0  0
   12.2367   -5.2695    0.0000 C   0  0  1  0  0  0  0  0  0  0  0  0
   11.5193   -4.0296    0.0000 C   0  0  2  0  0  0  0  0  0  0  0  0
   12.2313   -4.4461    0.0000 C   0  0  2  0  0  0  0  0  0  0  0  0
   12.9440   -4.0401    0.0000 O   0  0  0  0  0  0  0  0  0  0  0  0
   11.5201   -3.2070    0.0000 C   0  0  2  0  0  0  0  0  0  0  0  0
   10.0960   -5.6801    0.0000 C   0  0  1  0  0  0  0  0  0  0  0  0
    9.3834   -5.2714    0.0000 C   0  0  1  0  0  0  0  0  0  0  0  0
    8.6770   -5.6819    0.0000 O   0  0  0  0  0  0  0  0  0  0  0  0
    8.6771   -6.5028    0.0000 C   0  0  1  0  0  0  0  0  0  0  0  0
    9.3898   -6.9115    0.0000 O   0  0  0  0  0  0  0  0  0  0  0  0
   10.1024   -6.4994    0.0000 C   0  0  0  0  0  0  0  0  0  0  0  0
   12.2391   -2.7994    0.0000 C   0  0  0  0  0  0  0  0  0  0  0  0
   12.9494   -3.2174    0.0000 C   0  0  0  0  0  0  0  0  0  0  0  0
   13.6627   -2.8135    0.0000 C   0  0  0  0  0  0  0  0  0  0  0  0
   13.6719   -1.9899    0.0000 C   0  0  0  0  0  0  0  0  0  0  0  0
   12.9616   -1.5719    0.0000 O   0  0  0  0  0  0  0  0  0  0  0  0
   12.2420   -1.9774    0.0000 C   0  0  0  0  0  0  0  0  0  0  0  0
   11.5298   -1.5595    0.0000 O   0  0  0  0  0  0  0  0  0  0  0  0
   10.8069   -2.7910    0.0000 O   0  0  0  0  0  0  0  0  0  0  0  0
   12.2234   -3.6199    0.0000 C   0  0  0  0  0  0  0  0  0  0  0  0
   12.9528   -5.6806    0.0000 O   0  0  0  0  0  0  0  0  0  0  0  0
   10.8013   -3.6199    0.0000 C   0  0  0  0  0  0  0  0  0  0  0  0
   10.0882   -4.8543    0.0000 C   0  0  0  0  0  0  0  0  0  0  0  0
   13.6669   -5.2659    0.0000 C   0  0  0  0  0  0  0  0  0  0  0  0
   14.3830   -5.6771    0.0000 C   0  0  0  0  0  0  0  0  0  0  0  0
   13.6647   -4.4403    0.0000 O   0  0  0  0  0  0  0  0  0  0  0  0
   14.3830   -6.5027    0.0000 C   0  0  0  0  0  0  0  0  0  0  0  0
   15.0983   -6.9138    0.0000 C   0  0  0  0  0  0  0  0  0  0  0  0
   15.8134   -6.4990    0.0000 C   0  0  0  0  0  0  0  0  0  0  0  0
   15.8086   -5.6690    0.0000 C   0  0  0  0  0  0  0  0  0  0  0  0
   15.0927   -5.2618    0.0000 C   0  0  0  0  0  0  0  0  0  0  0  0
   14.3914   -1.5847    0.0000 C   0  0  0  0  0  0  0  0  0  0  0  0
   15.1027   -2.0063    0.0000 C   0  0  0  0  0  0  0  0  0  0  0  0
   15.8213   -1.6011    0.0000 N   0  0  0  0  0  0  0  0  0  0  0  0
   15.8297   -0.7745    0.0000 C   0  0  0  0  0  0  0  0  0  0  0  0
   15.1137   -0.3548    0.0000 C   0  0  0  0  0  0  0  0  0  0  0  0
   14.3980   -0.7624    0.0000 C   0  0  0  0  0  0  0  0  0  0  0  0
   16.5300   -6.9091    0.0000 F   0  0  0  0  0  0  0  0  0  0  0  0
    7.9633   -6.9164    0.0000 C   0  0  0  0  0  0  0  0  0  0  0  0
    7.2488   -6.5039    0.0000 C   0  0  0  0  0  0  0  0  0  0  0  0
    6.5343   -6.9164    0.0000 C   0  0  0  0  0  0  0  0  0  0  0  0
    6.5343   -7.7414    0.0000 C   0  0  0  0  0  0  0  0  0  0  0  0
    7.2488   -8.1539    0.0000 C   0  0  0  0  0  0  0  0  0  0  0  0
    7.9633   -7.7414    0.0000 C   0  0  0  0  0  0  0  0  0  0  0  0
 12  1  1  0  0  0  0
  1  2  1  0  0  0  0
  4 11  1  0  0  0  0
  3  2  1  0  0  0  0
  3  4  1  0  0  0  0
  7  3  1  1  0  0  0
  4  5  1  1  0  0  0
  6  5  1  0  0  0  0
  8  6  1  0  0  0  0
  7  8  1  0  0  0  0
  7 10  1  0  0  0  0
  8  9  1  0  0  0  0
  9 18  1  0  0  0  0
 10 17  1  0  0  0  0
 11 12  1  0  0  0  0
 11 16  1  0  0  0  0
 12 13  1  1  0  0  0
 14 13  1  0  0  0  0
 14 15  1  0  0  0  0
 15 16  1  0  0  0  0
 17 18  2  0  0  0  0
 17 22  1  0  0  0  0
 18 19  1  0  0  0  0
 19 20  2  0  0  0  0
 20 21  1  0  0  0  0
 21 22  1  0  0  0  0
 22 23  2  0  0  0  0
 10 24  1  1  0  0  0
  8 25  1  1  0  0  0
  6 26  1  1  0  0  0
  3 27  1  1  0  0  0
 11 28  1  1  0  0  0
 26 29  1  0  0  0  0
 29 30  1  0  0  0  0
 29 31  2  0  0  0  0
 30 32  2  0  0  0  0
 32 33  1  0  0  0  0
 33 34  2  0  0  0  0
 34 35  1  0  0  0  0
 35 36  2  0  0  0  0
 36 30  1  0  0  0  0
 37 38  2  0  0  0  0
 38 39  1  0  0  0  0
 39 40  2  0  0  0  0
 40 41  1  0  0  0  0
 41 42  2  0  0  0  0
 42 37  1  0  0  0  0
 20 37  1  0  0  0  0
 34 43  1  0  0  0  0
 14 44  1  1  0  0  0
 49 44  2  0  0  0  0
 45 44  1  0  0  0  0
 45 46  2  0  0  0  0
 46 47  1  0  0  0  0
 47 48  2  0  0  0  0
 48 49  1  0  0  0  0
M  END
> <From>
www.bindingDB.org

> <BindingDB Reactant_set_id>
51068430

> <Ligand InChI>
InChI=1S/C39H38FNO8/c1-37-16-15-29-38(2,21-45-36(48-29)23-8-5-4-6-9-23)28(37)19-30(47-34(43)22-11-13-25(40)14-12-22)39(3)33(37)32(42)31-27(49-39)18-26(46-35(31)44)24-10-7-17-41-20-24/h4-14,17-18,20,28-30,32-33,36,42H,15-16,19,21H2,1-3H3/t28-,29+,30+,32+,33-,36-,37+,38+,39-/m1/s1

> <Ligand InChI Key>
SSALRGGWBKQCMM-MKSFZIRSSA-N

> <BindingDB MonomerID>
50436343

> <BindingDB Ligand Name>
CHEMBL2398816

> <Target Name>
Sterol O-acyltransferase 2

> <Target Source Organism According to Curator or DataSource>


> <Ki (nM)>


> <IC50 (nM)>
 7.0

> <Kd (nM)>


> <EC50 (nM)>


> <kon (M-1-s-1)>


> <koff (s-1)>


> <pH>


> <Temp (C)>


> <Curation/DataSource>
ChEMBL

> <Article DOI>
10.1016/j.bmcl.2013.04.075

> <BindingDB Entry DOI>
10.7270/Q2WD41Z9

> <PMID>
23711919

> <PubChem AID>


> <Patent Number>


> <Authors>
Ohtawa, M; Yamazaki, H; Ohte, S; Matsuda, D; Ohshiro, T; Rudel, LL; Omura, S; Tomoda, H; Nagamitsu, T

> <Institution>
Kitasato University

> <Link to Ligand in BindingDB>
http://www.bindingdb.org/bind/chemsearch/marvin/MolStructure.jsp?monomerid=50436343

> <Link to Target in BindingDB>
http://www.bindingdb.org/jsp/dbsearch/PrimarySearch_ki.jsp?energyterm=kJ/mole&tag=pol&polymerid=7773&target=Sterol+O-acyltransferase+2&column=ki&startPg=0&Increment=50&submit=Search

> <Link to Ligand-Target Pair in BindingDB>
http://www.bindingdb.org/jsp/dbsearch/PrimarySearch_ki.jsp?energyterm=kJ/mole&tag=r21&monomerid=50436343&enzyme=Sterol+O-acyltransferase+2&column=ki&startPg=0&Increment=50&submit=Search

> <Ligand HET ID in PDB>


> <PDB ID(s) for Ligand-Target Complex>


> <PubChem CID>
71682200

> <PubChem SID>
175448660

> <ChEBI ID of Ligand>


> <ChEMBL ID of Ligand>
CHEMBL2398816

> <DrugBank ID of Ligand>


> <IUPHAR_GRAC ID of Ligand>


> <KEGG ID of Ligand>


> <ZINC ID of Ligand>
ZINC96272256

> <Number of Protein Chains in Target (>1 implies a multichain complex)>
1

> <BindingDB Target Chain Sequence>
MEPGGARLRLQRTEGLGGERERQPCGDGNTETHRAPDLVQWTRHMEAVKAQLLEQAQGQLRELLDRAMREAIQSYPSQDKPLPPPPPGSLSRTQEPSLGKQKVFIIRKSLLDELMEVQHFRTIYHMFIAGLCVFIISTLAIDFIDEGRLLLEFDLLIFSFGQLPLALVTWVPMFLSTLLAPYQALRLWARGTWTQATGLGCALLAAHAVVLCALPVHVAVEHQLPPASRCVLVFEQVRFLMKSYSFLREAVPGTLRARRGEGIQAPSFSSYLYFLFCPTLIYRETYPRTPYVRWNYVAKNFAQALGCVLYACFILGRLCVPVFANMSREPFSTRALVLSILHATLPGIFMLLLIFFAFLHCWLNAFAEMLRFGDRMFYRDWWNSTSFSNYYRTWNVVVHDWLYSYVYQDGLRLLGARARGVAMLGVFLVSAVAHEYIFCFVLGFFYPVMLILFLVIGGMLNFMMHDQRTGPAWNVLMWTMLFLGQGIQVSLYCQEWYARRHCPLPQATFWGLVTPRSWSCHT

> <PDB ID(s) of Target Chain>


> <UniProt (SwissProt) Recommended Name of Target Chain>
Sterol O-acyltransferase 2

> <UniProt (SwissProt) Entry Name of Target Chain>
ACAT-2

> <UniProt (SwissProt) Primary ID of Target Chain>
O75908

> <UniProt (SwissProt) Secondary ID(s) of Target Chain>
F5H7W4 I6L9H9 Q4VB99 Q4VBA1 Q96TD4 Q9UNR2

> <UniProt (SwissProt) Alternative ID(s) of Target Chain>


> <UniProt (TrEMBL) Submitted Name of Target Chain>


> <UniProt (TrEMBL) Entry Name of Target Chain>


> <UniProt (TrEMBL) Primary ID of Target Chain>


> <UniProt (TrEMBL) Secondary ID(s) of Target Chain>


> <UniProt (TrEMBL) Alternative ID(s) of Target Chain>


$$$$

  Mrv0541 11241417102D          

 49 54  0  0  0  0            999 V2000
   15.1754  -10.6669    0.0000 C   0  0  0  0  0  0  0  0  0  0  0  0
   14.7670   -9.9544    0.0000 C   0  0  2  0  0  0  0  0  0  0  0  0
   14.3541  -10.6643    0.0000 C   0  0  0  0  0  0  0  0  0  0  0  0
   14.0587   -8.7211    0.0000 C   0  0  0  0  0  0  0  0  0  0  0  0
   14.0587   -9.5461    0.0000 C   0  0  2  0  0  0  0  0  0  0  0  0
   14.7707   -8.3044    0.0000 C   0  0  0  0  0  0  0  0  0  0  0  0
   15.4827   -8.7211    0.0000 C   0  0  1  0  0  0  0  0  0  0  0  0
   15.4838   -9.5461    0.0000 C   0  0  1  0  0  0  0  0  0  0  0  0
   16.1949   -9.9554    0.0000 C   0  0  0  0  0  0  0  0  0  0  0  0
   16.9095   -9.5443    0.0000 C   0  0  1  0  0  0  0  0  0  0  0  0
   16.1928   -8.3053    0.0000 C   0  0  2  0  0  0  0  0  0  0  0  0
   16.9080   -8.7239    0.0000 C   0  0  2  0  0  0  0  0  0  0  0  0
   17.6240   -8.3159    0.0000 O   0  0  0  0  0  0  0  0  0  0  0  0
   16.1936   -7.4790    0.0000 C   0  0  2  0  0  0  0  0  0  0  0  0
   16.9159   -7.0694    0.0000 C   0  0  0  0  0  0  0  0  0  0  0  0
   17.6340   -7.4916    0.0000 C   0  0  0  0  0  0  0  0  0  0  0  0
   18.3547   -7.0830    0.0000 C   0  0  0  0  0  0  0  0  0  0  0  0
   18.3636   -6.2507    0.0000 C   0  0  0  0  0  0  0  0  0  0  0  0
   17.6454   -5.8285    0.0000 O   0  0  0  0  0  0  0  0  0  0  0  0
   16.9184   -6.2387    0.0000 C   0  0  0  0  0  0  0  0  0  0  0  0
   19.0773   -5.8465    0.0000 C   0  0  0  0  0  0  0  0  0  0  0  0
   19.7883   -6.2673    0.0000 C   0  0  0  0  0  0  0  0  0  0  0  0
   20.5061   -5.8621    0.0000 N   0  0  0  0  0  0  0  0  0  0  0  0
   20.5142   -5.0362    0.0000 C   0  0  0  0  0  0  0  0  0  0  0  0
   19.7985   -4.6172    0.0000 C   0  0  0  0  0  0  0  0  0  0  0  0
   19.0837   -5.0248    0.0000 C   0  0  0  0  0  0  0  0  0  0  0  0
   16.2067   -5.8215    0.0000 O   0  0  0  0  0  0  0  0  0  0  0  0
   17.6239   -9.9567    0.0000 O   0  0  0  0  0  0  0  0  0  0  0  0
   18.3384   -9.5441    0.0000 C   0  0  0  0  0  0  0  0  0  0  0  0
   19.0530   -9.9565    0.0000 C   0  0  0  0  0  0  0  0  0  0  0  0
   18.3383   -8.7190    0.0000 O   0  0  0  0  0  0  0  0  0  0  0  0
   13.3448   -9.9596    0.0000 O   0  0  0  0  0  0  0  0  0  0  0  0
   12.6297   -9.5481    0.0000 C   0  0  0  0  0  0  0  0  0  0  0  0
   11.9158   -9.9617    0.0000 C   0  0  0  0  0  0  0  0  0  0  0  0
   12.6285   -8.7231    0.0000 O   0  0  0  0  0  0  0  0  0  0  0  0
   14.7606  -11.3801    0.0000 O   0  0  0  0  0  0  0  0  0  0  0  0
   15.1708  -12.0959    0.0000 C   0  0  0  0  0  0  0  0  0  0  0  0
   14.7560  -12.8090    0.0000 C   0  0  0  0  0  0  0  0  0  0  0  0
   15.9958  -12.0985    0.0000 O   0  0  0  0  0  0  0  0  0  0  0  0
   15.4809   -7.0633    0.0000 O   0  0  0  0  0  0  0  0  0  0  0  0
   15.4753   -7.8960    0.0000 C   0  0  0  0  0  0  0  0  0  0  0  0
   16.9004   -7.8960    0.0000 C   0  0  0  0  0  0  0  0  0  0  0  0
   19.0477  -10.7805    0.0000 C   0  0  0  0  0  0  0  0  0  0  0  0
   19.7615  -11.1928    0.0000 C   0  0  0  0  0  0  0  0  0  0  0  0
   20.4769  -10.7802    0.0000 C   0  0  0  0  0  0  0  0  0  0  0  0
   20.4742   -9.9509    0.0000 C   0  0  0  0  0  0  0  0  0  0  0  0
   19.7599   -9.5422    0.0000 C   0  0  0  0  0  0  0  0  0  0  0  0
   19.7556   -8.7173    0.0000 F   0  0  0  0  0  0  0  0  0  0  0  0
   21.1920  -11.1917    0.0000 Br  0  0  0  0  0  0  0  0  0  0  0  0
  2  1  1  6  0  0  0
  2  3  1  1  0  0  0
  5  4  1  0  0  0  0
  4  6  1  0  0  0  0
  2  5  1  0  0  0  0
  8  2  1  0  0  0  0
  7  6  1  0  0  0  0
  7  8  1  0  0  0  0
 11  7  1  1  0  0  0
  8  9  1  1  0  0  0
 10  9  1  0  0  0  0
 12 10  1  0  0  0  0
 11 12  1  0  0  0  0
 11 14  1  0  0  0  0
 12 13  1  0  0  0  0
 13 16  1  0  0  0  0
 14 15  1  0  0  0  0
 15 16  2  0  0  0  0
 15 20  1  0  0  0  0
 16 17  1  0  0  0  0
 17 18  2  0  0  0  0
 18 19  1  0  0  0  0
 19 20  1  0  0  0  0
 21 22  2  0  0  0  0
 22 23  1  0  0  0  0
 23 24  2  0  0  0  0
 24 25  1  0  0  0  0
 25 26  2  0  0  0  0
 26 21  1  0  0  0  0
 18 21  1  0  0  0  0
 20 27  2  0  0  0  0
 10 28  1  1  0  0  0
 28 29  1  0  0  0  0
 29 30  1  0  0  0  0
 29 31  2  0  0  0  0
  5 32  1  1  0  0  0
 32 33  1  0  0  0  0
 33 34  1  0  0  0  0
 33 35  2  0  0  0  0
  1 36  1  0  0  0  0
 36 37  1  0  0  0  0
 37 38  1  0  0  0  0
 37 39  2  0  0  0  0
 14 40  1  1  0  0  0
  7 41  1  1  0  0  0
 12 42  1  1  0  0  0
 30 43  2  0  0  0  0
 43 44  1  0  0  0  0
 44 45  2  0  0  0  0
 45 46  1  0  0  0  0
 46 47  2  0  0  0  0
 47 30  1  0  0  0  0
 47 48  1  0  0  0  0
 45 49  1  0  0  0  0
M  END
> <From>
www.bindingDB.org

> <BindingDB Reactant_set_id>
51053263

> <Ligand InChI>
InChI=1S/C36H37BrFNO10/c1-18(40)45-17-35(4)26-15-28(48-32(43)22-9-8-21(37)13-23(22)38)36(5)31(34(26,3)11-10-27(35)46-19(2)41)30(42)29-25(49-36)14-24(47-33(29)44)20-7-6-12-39-16-20/h6-9,12-14,16,26-28,30-31,42H,10-11,15,17H2,1-5H3/t26-,27+,28+,30+,31-,34+,35+,36-/m1/s1

> <Ligand InChI Key>
MAVXPENGNYLBMJ-HRSZXCBJSA-N

> <BindingDB MonomerID>
50429573

> <BindingDB Ligand Name>
CHEMBL2334216

> <Target Name>
Sterol O-acyltransferase 2

> <Target Source Organism According to Curator or DataSource>


> <Ki (nM)>


> <IC50 (nM)>
 7.0

> <Kd (nM)>


> <EC50 (nM)>


> <kon (M-1-s-1)>


> <koff (s-1)>


> <pH>


> <Temp (C)>


> <Curation/DataSource>
ChEMBL

> <Article DOI>
10.1016/j.bmcl.2012.12.099

> <BindingDB Entry DOI>
10.7270/Q2P270HW

> <PMID>
23369538

> <PubChem AID>


> <Patent Number>


> <Authors>
Ohtawa, M; Yamazaki, H; Ohte, S; Matsuda, D; Ohshiro, T; Rudel, LL; Omura, S; Tomoda, H; Nagamitsu, T

> <Institution>
Kitasato University

> <Link to Ligand in BindingDB>
http://www.bindingdb.org/bind/chemsearch/marvin/MolStructure.jsp?monomerid=50429573

> <Link to Target in BindingDB>
http://www.bindingdb.org/jsp/dbsearch/PrimarySearch_ki.jsp?energyterm=kJ/mole&tag=pol&polymerid=7773&target=Sterol+O-acyltransferase+2&column=ki&startPg=0&Increment=50&submit=Search

> <Link to Ligand-Target Pair in BindingDB>
http://www.bindingdb.org/jsp/dbsearch/PrimarySearch_ki.jsp?energyterm=kJ/mole&tag=r21&monomerid=50429573&enzyme=Sterol+O-acyltransferase+2&column=ki&startPg=0&Increment=50&submit=Search

> <Ligand HET ID in PDB>


> <PDB ID(s) for Ligand-Target Complex>


> <PubChem CID>
71559548

> <PubChem SID>
164158448

> <ChEBI ID of Ligand>


> <ChEMBL ID of Ligand>
CHEMBL2334216

> <DrugBank ID of Ligand>


> <IUPHAR_GRAC ID of Ligand>


> <KEGG ID of Ligand>


> <ZINC ID of Ligand>
ZINC95591806

> <Number of Protein Chains in Target (>1 implies a multichain complex)>
1

> <BindingDB Target Chain Sequence>
MEPGGARLRLQRTEGLGGERERQPCGDGNTETHRAPDLVQWTRHMEAVKAQLLEQAQGQLRELLDRAMREAIQSYPSQDKPLPPPPPGSLSRTQEPSLGKQKVFIIRKSLLDELMEVQHFRTIYHMFIAGLCVFIISTLAIDFIDEGRLLLEFDLLIFSFGQLPLALVTWVPMFLSTLLAPYQALRLWARGTWTQATGLGCALLAAHAVVLCALPVHVAVEHQLPPASRCVLVFEQVRFLMKSYSFLREAVPGTLRARRGEGIQAPSFSSYLYFLFCPTLIYRETYPRTPYVRWNYVAKNFAQALGCVLYACFILGRLCVPVFANMSREPFSTRALVLSILHATLPGIFMLLLIFFAFLHCWLNAFAEMLRFGDRMFYRDWWNSTSFSNYYRTWNVVVHDWLYSYVYQDGLRLLGARARGVAMLGVFLVSAVAHEYIFCFVLGFFYPVMLILFLVIGGMLNFMMHDQRTGPAWNVLMWTMLFLGQGIQVSLYCQEWYARRHCPLPQATFWGLVTPRSWSCHT

> <PDB ID(s) of Target Chain>


> <UniProt (SwissProt) Recommended Name of Target Chain>
Sterol O-acyltransferase 2

> <UniProt (SwissProt) Entry Name of Target Chain>
ACAT-2

> <UniProt (SwissProt) Primary ID of Target Chain>
O75908

> <UniProt (SwissProt) Secondary ID(s) of Target Chain>
F5H7W4 I6L9H9 Q4VB99 Q4VBA1 Q96TD4 Q9UNR2

> <UniProt (SwissProt) Alternative ID(s) of Target Chain>


> <UniProt (TrEMBL) Submitted Name of Target Chain>


> <UniProt (TrEMBL) Entry Name of Target Chain>


> <UniProt (TrEMBL) Primary ID of Target Chain>


> <UniProt (TrEMBL) Secondary ID(s) of Target Chain>


> <UniProt (TrEMBL) Alternative ID(s) of Target Chain>


$$$$

  Mrv0541 11241418062D          

 52 59  0  0  0  0            999 V2000
    3.7784  -12.0899    0.0000 C   0  0  0  0  0  0  0  0  0  0  0  0
    4.4910  -11.6729    0.0000 C   0  0  0  0  0  0  0  0  0  0  0  0
    5.2037  -12.0899    0.0000 C   0  0  1  0  0  0  0  0  0  0  0  0
    5.2048  -12.9157    0.0000 C   0  0  1  0  0  0  0  0  0  0  0  0
    5.9164  -13.3254    0.0000 C   0  0  0  0  0  0  0  0  0  0  0  0
    6.6316  -12.9139    0.0000 C   0  0  1  0  0  0  0  0  0  0  0  0
    5.9143  -11.6739    0.0000 C   0  0  2  0  0  0  0  0  0  0  0  0
    6.6263  -12.0904    0.0000 C   0  0  2  0  0  0  0  0  0  0  0  0
    7.3390  -11.6844    0.0000 O   0  0  0  0  0  0  0  0  0  0  0  0
    5.9151  -10.8513    0.0000 C   0  0  2  0  0  0  0  0  0  0  0  0
    4.4910  -13.3244    0.0000 C   0  0  1  0  0  0  0  0  0  0  0  0
    3.7784  -12.9157    0.0000 C   0  0  1  0  0  0  0  0  0  0  0  0
    3.0720  -13.3262    0.0000 O   0  0  0  0  0  0  0  0  0  0  0  0
    3.0721  -14.1472    0.0000 C   0  0  1  0  0  0  0  0  0  0  0  0
    3.7848  -14.5559    0.0000 O   0  0  0  0  0  0  0  0  0  0  0  0
    4.4973  -14.1437    0.0000 C   0  0  0  0  0  0  0  0  0  0  0  0
    6.6341  -10.4437    0.0000 C   0  0  0  0  0  0  0  0  0  0  0  0
    7.3444  -10.8618    0.0000 C   0  0  0  0  0  0  0  0  0  0  0  0
    8.0577  -10.4578    0.0000 C   0  0  0  0  0  0  0  0  0  0  0  0
    8.0669   -9.6343    0.0000 C   0  0  0  0  0  0  0  0  0  0  0  0
    7.3565   -9.2162    0.0000 O   0  0  0  0  0  0  0  0  0  0  0  0
    6.6370   -9.6217    0.0000 C   0  0  0  0  0  0  0  0  0  0  0  0
    5.9248   -9.2039    0.0000 O   0  0  0  0  0  0  0  0  0  0  0  0
    5.2018  -10.4353    0.0000 O   0  0  0  0  0  0  0  0  0  0  0  0
    6.6184  -11.2642    0.0000 C   0  0  0  0  0  0  0  0  0  0  0  0
    7.3478  -13.3249    0.0000 O   0  0  0  0  0  0  0  0  0  0  0  0
    5.1963  -11.2642    0.0000 C   0  0  0  0  0  0  0  0  0  0  0  0
    4.4832  -12.4987    0.0000 C   0  0  0  0  0  0  0  0  0  0  0  0
    8.0618  -12.9103    0.0000 C   0  0  0  0  0  0  0  0  0  0  0  0
    8.7780  -13.3214    0.0000 C   0  0  0  0  0  0  0  0  0  0  0  0
    8.0597  -12.0846    0.0000 O   0  0  0  0  0  0  0  0  0  0  0  0
    8.7780  -14.1470    0.0000 C   0  0  0  0  0  0  0  0  0  0  0  0
    9.4933  -14.5581    0.0000 C   0  0  0  0  0  0  0  0  0  0  0  0
   10.2084  -14.1433    0.0000 C   0  0  0  0  0  0  0  0  0  0  0  0
   10.2036  -13.3133    0.0000 C   0  0  0  0  0  0  0  0  0  0  0  0
    9.4877  -12.9061    0.0000 C   0  0  0  0  0  0  0  0  0  0  0  0
    8.7863   -9.2291    0.0000 C   0  0  0  0  0  0  0  0  0  0  0  0
    9.4977   -9.6506    0.0000 C   0  0  0  0  0  0  0  0  0  0  0  0
   10.2162   -9.2454    0.0000 N   0  0  0  0  0  0  0  0  0  0  0  0
   10.2247   -8.4188    0.0000 C   0  0  0  0  0  0  0  0  0  0  0  0
    9.5087   -7.9992    0.0000 C   0  0  0  0  0  0  0  0  0  0  0  0
    8.7930   -8.4067    0.0000 C   0  0  0  0  0  0  0  0  0  0  0  0
    2.3577  -14.5611    0.0000 C   0  0  0  0  0  0  0  0  0  0  0  0
    1.6450  -14.1463    0.0000 C   0  0  0  0  0  0  0  0  0  0  0  0
    0.9310  -14.5596    0.0000 C   0  0  0  0  0  0  0  0  0  0  0  0
    0.9318  -15.3863    0.0000 C   0  0  0  0  0  0  0  0  0  0  0  0
    1.6526  -15.7978    0.0000 C   0  0  0  0  0  0  0  0  0  0  0  0
    2.3637  -15.3822    0.0000 C   0  0  0  0  0  0  0  0  0  0  0  0
   10.9240  -14.5491    0.0000 C   0  0  0  0  0  0  0  0  0  0  0  0
   11.6407  -14.9592    0.0000 N   0  0  0  0  0  0  0  0  0  0  0  0
    3.0814  -15.7905    0.0000 C   0  0  0  0  0  0  0  0  0  0  0  0
    1.6460  -13.3206    0.0000 C   0  0  0  0  0  0  0  0  0  0  0  0
 12  1  1  0  0  0  0
  1  2  1  0  0  0  0
  4 11  1  0  0  0  0
  3  2  1  0  0  0  0
  3  4  1  0  0  0  0
  7  3  1  1  0  0  0
  4  5  1  1  0  0  0
  6  5  1  0  0  0  0
  8  6  1  0  0  0  0
  7  8  1  0  0  0  0
  7 10  1  0  0  0  0
  8  9  1  0  0  0  0
  9 18  1  0  0  0  0
 10 17  1  0  0  0  0
 11 12  1  0  0  0  0
 11 16  1  0  0  0  0
 12 13  1  1  0  0  0
 14 13  1  0  0  0  0
 14 15  1  0  0  0  0
 15 16  1  0  0  0  0
 17 18  2  0  0  0  0
 17 22  1  0  0  0  0
 18 19  1  0  0  0  0
 19 20  2  0  0  0  0
 20 21  1  0  0  0  0
 21 22  1  0  0  0  0
 22 23  2  0  0  0  0
 10 24  1  1  0  0  0
  8 25  1  1  0  0  0
  6 26  1  1  0  0  0
  3 27  1  1  0  0  0
 11 28  1  1  0  0  0
 26 29  1  0  0  0  0
 29 30  1  0  0  0  0
 29 31  2  0  0  0  0
 30 32  2  0  0  0  0
 32 33  1  0  0  0  0
 33 34  2  0  0  0  0
 34 35  1  0  0  0  0
 35 36  2  0  0  0  0
 36 30  1  0  0  0  0
 37 38  2  0  0  0  0
 38 39  1  0  0  0  0
 39 40  2  0  0  0  0
 40 41  1  0  0  0  0
 41 42  2  0  0  0  0
 42 37  1  0  0  0  0
 20 37  1  0  0  0  0
 14 43  1  1  0  0  0
 43 44  2  0  0  0  0
 44 45  1  0  0  0  0
 45 46  2  0  0  0  0
 46 47  1  0  0  0  0
 47 48  2  0  0  0  0
 48 43  1  0  0  0  0
 49 50  3  0  0  0  0
 34 49  1  0  0  0  0
 48 51  1  0  0  0  0
 44 52  1  0  0  0  0
M  END
> <From>
www.bindingDB.org

> <BindingDB Reactant_set_id>
51068461

> <Ligand InChI>
InChI=1S/C42H42N2O8/c1-23-8-6-9-24(2)33(23)39-48-22-41(4)30-19-32(50-37(46)26-13-11-25(20-43)12-14-26)42(5)36(40(30,3)16-15-31(41)51-39)35(45)34-29(52-42)18-28(49-38(34)47)27-10-7-17-44-21-27/h6-14,17-18,21,30-32,35-36,39,45H,15-16,19,22H2,1-5H3/t30-,31+,32+,35+,36-,39-,40+,41+,42-/m1/s1

> <Ligand InChI Key>
ABZWZWCOZORHIB-LVIBBYQVSA-N

> <BindingDB MonomerID>
50436346

> <BindingDB Ligand Name>
CHEMBL2398813

> <Target Name>
Sterol O-acyltransferase 2

> <Target Source Organism According to Curator or DataSource>


> <Ki (nM)>


> <IC50 (nM)>
 7.2

> <Kd (nM)>


> <EC50 (nM)>


> <kon (M-1-s-1)>


> <koff (s-1)>


> <pH>


> <Temp (C)>


> <Curation/DataSource>
ChEMBL

> <Article DOI>
10.1016/j.bmcl.2013.04.075

> <BindingDB Entry DOI>
10.7270/Q2WD41Z9

> <PMID>
23711919

> <PubChem AID>


> <Patent Number>


> <Authors>
Ohtawa, M; Yamazaki, H; Ohte, S; Matsuda, D; Ohshiro, T; Rudel, LL; Omura, S; Tomoda, H; Nagamitsu, T

> <Institution>
Kitasato University

> <Link to Ligand in BindingDB>
http://www.bindingdb.org/bind/chemsearch/marvin/MolStructure.jsp?monomerid=50436346

> <Link to Target in BindingDB>
http://www.bindingdb.org/jsp/dbsearch/PrimarySearch_ki.jsp?energyterm=kJ/mole&tag=pol&polymerid=7773&target=Sterol+O-acyltransferase+2&column=ki&startPg=0&Increment=50&submit=Search

> <Link to Ligand-Target Pair in BindingDB>
http://www.bindingdb.org/jsp/dbsearch/PrimarySearch_ki.jsp?energyterm=kJ/mole&tag=r21&monomerid=50436346&enzyme=Sterol+O-acyltransferase+2&column=ki&startPg=0&Increment=50&submit=Search

> <Ligand HET ID in PDB>


> <PDB ID(s) for Ligand-Target Complex>


> <PubChem CID>
71683134

> <PubChem SID>
175448663

> <ChEBI ID of Ligand>


> <ChEMBL ID of Ligand>
CHEMBL2398813

> <DrugBank ID of Ligand>


> <IUPHAR_GRAC ID of Ligand>


> <KEGG ID of Ligand>


> <ZINC ID of Ligand>
ZINC96272258

> <Number of Protein Chains in Target (>1 implies a multichain complex)>
1

> <BindingDB Target Chain Sequence>
MEPGGARLRLQRTEGLGGERERQPCGDGNTETHRAPDLVQWTRHMEAVKAQLLEQAQGQLRELLDRAMREAIQSYPSQDKPLPPPPPGSLSRTQEPSLGKQKVFIIRKSLLDELMEVQHFRTIYHMFIAGLCVFIISTLAIDFIDEGRLLLEFDLLIFSFGQLPLALVTWVPMFLSTLLAPYQALRLWARGTWTQATGLGCALLAAHAVVLCALPVHVAVEHQLPPASRCVLVFEQVRFLMKSYSFLREAVPGTLRARRGEGIQAPSFSSYLYFLFCPTLIYRETYPRTPYVRWNYVAKNFAQALGCVLYACFILGRLCVPVFANMSREPFSTRALVLSILHATLPGIFMLLLIFFAFLHCWLNAFAEMLRFGDRMFYRDWWNSTSFSNYYRTWNVVVHDWLYSYVYQDGLRLLGARARGVAMLGVFLVSAVAHEYIFCFVLGFFYPVMLILFLVIGGMLNFMMHDQRTGPAWNVLMWTMLFLGQGIQVSLYCQEWYARRHCPLPQATFWGLVTPRSWSCHT

> <PDB ID(s) of Target Chain>


> <UniProt (SwissProt) Recommended Name of Target Chain>
Sterol O-acyltransferase 2

> <UniProt (SwissProt) Entry Name of Target Chain>
ACAT-2

> <UniProt (SwissProt) Primary ID of Target Chain>
O75908

> <UniProt (SwissProt) Secondary ID(s) of Target Chain>
F5H7W4 I6L9H9 Q4VB99 Q4VBA1 Q96TD4 Q9UNR2

> <UniProt (SwissProt) Alternative ID(s) of Target Chain>


> <UniProt (TrEMBL) Submitted Name of Target Chain>


> <UniProt (TrEMBL) Entry Name of Target Chain>


> <UniProt (TrEMBL) Primary ID of Target Chain>


> <UniProt (TrEMBL) Secondary ID(s) of Target Chain>


> <UniProt (TrEMBL) Alternative ID(s) of Target Chain>


$$$$

  Mrv0541 11241418062D          

 51 58  0  0  0  0            999 V2000
   11.2145  -18.3170    0.0000 C   0  0  0  0  0  0  0  0  0  0  0  0
   11.9272  -17.9000    0.0000 C   0  0  0  0  0  0  0  0  0  0  0  0
   12.6399  -18.3170    0.0000 C   0  0  1  0  0  0  0  0  0  0  0  0
   12.6410  -19.1428    0.0000 C   0  0  1  0  0  0  0  0  0  0  0  0
   13.3526  -19.5524    0.0000 C   0  0  0  0  0  0  0  0  0  0  0  0
   14.0679  -19.1409    0.0000 C   0  0  1  0  0  0  0  0  0  0  0  0
   13.3505  -17.9009    0.0000 C   0  0  2  0  0  0  0  0  0  0  0  0
   14.0625  -18.3175    0.0000 C   0  0  2  0  0  0  0  0  0  0  0  0
   14.7753  -17.9114    0.0000 O   0  0  0  0  0  0  0  0  0  0  0  0
   13.3513  -17.0783    0.0000 C   0  0  2  0  0  0  0  0  0  0  0  0
   11.9272  -19.5514    0.0000 C   0  0  1  0  0  0  0  0  0  0  0  0
   11.2145  -19.1428    0.0000 C   0  0  1  0  0  0  0  0  0  0  0  0
   10.5082  -19.5533    0.0000 O   0  0  0  0  0  0  0  0  0  0  0  0
   10.5083  -20.3742    0.0000 C   0  0  1  0  0  0  0  0  0  0  0  0
   11.2210  -20.7830    0.0000 O   0  0  0  0  0  0  0  0  0  0  0  0
   11.9335  -20.3707    0.0000 C   0  0  0  0  0  0  0  0  0  0  0  0
   14.0704  -16.6707    0.0000 C   0  0  0  0  0  0  0  0  0  0  0  0
   14.7808  -17.0887    0.0000 C   0  0  0  0  0  0  0  0  0  0  0  0
   15.4941  -16.6848    0.0000 C   0  0  0  0  0  0  0  0  0  0  0  0
   15.5033  -15.8612    0.0000 C   0  0  0  0  0  0  0  0  0  0  0  0
   14.7928  -15.4431    0.0000 O   0  0  0  0  0  0  0  0  0  0  0  0
   14.0733  -15.8487    0.0000 C   0  0  0  0  0  0  0  0  0  0  0  0
   13.3610  -15.4308    0.0000 O   0  0  0  0  0  0  0  0  0  0  0  0
   12.6380  -16.6623    0.0000 O   0  0  0  0  0  0  0  0  0  0  0  0
   14.0547  -17.4912    0.0000 C   0  0  0  0  0  0  0  0  0  0  0  0
   14.7841  -19.5520    0.0000 O   0  0  0  0  0  0  0  0  0  0  0  0
   12.6326  -17.4912    0.0000 C   0  0  0  0  0  0  0  0  0  0  0  0
   11.9194  -18.7257    0.0000 C   0  0  0  0  0  0  0  0  0  0  0  0
   15.4981  -19.1373    0.0000 C   0  0  0  0  0  0  0  0  0  0  0  0
   16.2144  -19.5484    0.0000 C   0  0  0  0  0  0  0  0  0  0  0  0
   15.4961  -18.3115    0.0000 O   0  0  0  0  0  0  0  0  0  0  0  0
   16.2144  -20.3741    0.0000 C   0  0  0  0  0  0  0  0  0  0  0  0
   16.9297  -20.7851    0.0000 C   0  0  0  0  0  0  0  0  0  0  0  0
   17.6447  -20.3704    0.0000 C   0  0  0  0  0  0  0  0  0  0  0  0
   17.6400  -19.5404    0.0000 C   0  0  0  0  0  0  0  0  0  0  0  0
   16.9241  -19.1331    0.0000 C   0  0  0  0  0  0  0  0  0  0  0  0
   16.2227  -15.4560    0.0000 C   0  0  0  0  0  0  0  0  0  0  0  0
   16.9340  -15.8776    0.0000 C   0  0  0  0  0  0  0  0  0  0  0  0
   17.6527  -15.4723    0.0000 N   0  0  0  0  0  0  0  0  0  0  0  0
   17.6612  -14.6458    0.0000 C   0  0  0  0  0  0  0  0  0  0  0  0
   16.9450  -14.2260    0.0000 C   0  0  0  0  0  0  0  0  0  0  0  0
   16.2294  -14.6336    0.0000 C   0  0  0  0  0  0  0  0  0  0  0  0
    9.7938  -20.7882    0.0000 C   0  0  0  0  0  0  0  0  0  0  0  0
    9.0812  -20.3734    0.0000 C   0  0  0  0  0  0  0  0  0  0  0  0
    8.3672  -20.7867    0.0000 C   0  0  0  0  0  0  0  0  0  0  0  0
    8.3680  -21.6133    0.0000 C   0  0  0  0  0  0  0  0  0  0  0  0
    9.0888  -22.0250    0.0000 C   0  0  0  0  0  0  0  0  0  0  0  0
    9.7999  -21.6094    0.0000 C   0  0  0  0  0  0  0  0  0  0  0  0
    9.0929  -22.8508    0.0000 C   0  0  0  0  0  0  0  0  0  0  0  0
   18.3604  -20.7762    0.0000 C   0  0  0  0  0  0  0  0  0  0  0  0
   19.0771  -21.1864    0.0000 N   0  0  0  0  0  0  0  0  0  0  0  0
 12  1  1  0  0  0  0
  1  2  1  0  0  0  0
  4 11  1  0  0  0  0
  3  2  1  0  0  0  0
  3  4  1  0  0  0  0
  7  3  1  1  0  0  0
  4  5  1  1  0  0  0
  6  5  1  0  0  0  0
  8  6  1  0  0  0  0
  7  8  1  0  0  0  0
  7 10  1  0  0  0  0
  8  9  1  0  0  0  0
  9 18  1  0  0  0  0
 10 17  1  0  0  0  0
 11 12  1  0  0  0  0
 11 16  1  0  0  0  0
 12 13  1  1  0  0  0
 14 13  1  0  0  0  0
 14 15  1  0  0  0  0
 15 16  1  0  0  0  0
 17 18  2  0  0  0  0
 17 22  1  0  0  0  0
 18 19  1  0  0  0  0
 19 20  2  0  0  0  0
 20 21  1  0  0  0  0
 21 22  1  0  0  0  0
 22 23  2  0  0  0  0
 10 24  1  1  0  0  0
  8 25  1  1  0  0  0
  6 26  1  1  0  0  0
  3 27  1  1  0  0  0
 11 28  1  1  0  0  0
 26 29  1  0  0  0  0
 29 30  1  0  0  0  0
 29 31  2  0  0  0  0
 30 32  2  0  0  0  0
 32 33  1  0  0  0  0
 33 34  2  0  0  0  0
 34 35  1  0  0  0  0
 35 36  2  0  0  0  0
 36 30  1  0  0  0  0
 37 38  2  0  0  0  0
 38 39  1  0  0  0  0
 39 40  2  0  0  0  0
 40 41  1  0  0  0  0
 41 42  2  0  0  0  0
 42 37  1  0  0  0  0
 20 37  1  0  0  0  0
 14 43  1  1  0  0  0
 43 44  2  0  0  0  0
 44 45  1  0  0  0  0
 45 46  2  0  0  0  0
 46 47  1  0  0  0  0
 47 48  2  0  0  0  0
 48 43  1  0  0  0  0
 47 49  1  0  0  0  0
 50 51  3  0  0  0  0
 34 50  1  0  0  0  0
M  END
> <From>
www.bindingDB.org

> <BindingDB Reactant_set_id>
51068468

> <Ligand InChI>
InChI=1S/C41H40N2O8/c1-23-7-5-8-26(17-23)38-47-22-40(3)30-19-32(49-36(45)25-12-10-24(20-42)11-13-25)41(4)35(39(30,2)15-14-31(40)50-38)34(44)33-29(51-41)18-28(48-37(33)46)27-9-6-16-43-21-27/h5-13,16-18,21,30-32,34-35,38,44H,14-15,19,22H2,1-4H3/t30-,31+,32+,34+,35-,38-,39+,40+,41-/m1/s1

> <Ligand InChI Key>
WSBKXEFDERVRCY-KFSBURAESA-N

> <BindingDB MonomerID>
50436353

> <BindingDB Ligand Name>
CHEMBL2398806

> <Target Name>
Sterol O-acyltransferase 2

> <Target Source Organism According to Curator or DataSource>


> <Ki (nM)>


> <IC50 (nM)>
 7.8

> <Kd (nM)>


> <EC50 (nM)>


> <kon (M-1-s-1)>


> <koff (s-1)>


> <pH>


> <Temp (C)>


> <Curation/DataSource>
ChEMBL

> <Article DOI>
10.1016/j.bmcl.2013.04.075

> <BindingDB Entry DOI>
10.7270/Q2WD41Z9

> <PMID>
23711919

> <PubChem AID>


> <Patent Number>


> <Authors>
Ohtawa, M; Yamazaki, H; Ohte, S; Matsuda, D; Ohshiro, T; Rudel, LL; Omura, S; Tomoda, H; Nagamitsu, T

> <Institution>
Kitasato University

> <Link to Ligand in BindingDB>
http://www.bindingdb.org/bind/chemsearch/marvin/MolStructure.jsp?monomerid=50436353

> <Link to Target in BindingDB>
http://www.bindingdb.org/jsp/dbsearch/PrimarySearch_ki.jsp?energyterm=kJ/mole&tag=pol&polymerid=7773&target=Sterol+O-acyltransferase+2&column=ki&startPg=0&Increment=50&submit=Search

> <Link to Ligand-Target Pair in BindingDB>
http://www.bindingdb.org/jsp/dbsearch/PrimarySearch_ki.jsp?energyterm=kJ/mole&tag=r21&monomerid=50436353&enzyme=Sterol+O-acyltransferase+2&column=ki&startPg=0&Increment=50&submit=Search

> <Ligand HET ID in PDB>


> <PDB ID(s) for Ligand-Target Complex>


> <PubChem CID>
71682813

> <PubChem SID>
175448670

> <ChEBI ID of Ligand>


> <ChEMBL ID of Ligand>
CHEMBL2398806

> <DrugBank ID of Ligand>


> <IUPHAR_GRAC ID of Ligand>


> <KEGG ID of Ligand>


> <ZINC ID of Ligand>
ZINC72317455

> <Number of Protein Chains in Target (>1 implies a multichain complex)>
1

> <BindingDB Target Chain Sequence>
MEPGGARLRLQRTEGLGGERERQPCGDGNTETHRAPDLVQWTRHMEAVKAQLLEQAQGQLRELLDRAMREAIQSYPSQDKPLPPPPPGSLSRTQEPSLGKQKVFIIRKSLLDELMEVQHFRTIYHMFIAGLCVFIISTLAIDFIDEGRLLLEFDLLIFSFGQLPLALVTWVPMFLSTLLAPYQALRLWARGTWTQATGLGCALLAAHAVVLCALPVHVAVEHQLPPASRCVLVFEQVRFLMKSYSFLREAVPGTLRARRGEGIQAPSFSSYLYFLFCPTLIYRETYPRTPYVRWNYVAKNFAQALGCVLYACFILGRLCVPVFANMSREPFSTRALVLSILHATLPGIFMLLLIFFAFLHCWLNAFAEMLRFGDRMFYRDWWNSTSFSNYYRTWNVVVHDWLYSYVYQDGLRLLGARARGVAMLGVFLVSAVAHEYIFCFVLGFFYPVMLILFLVIGGMLNFMMHDQRTGPAWNVLMWTMLFLGQGIQVSLYCQEWYARRHCPLPQATFWGLVTPRSWSCHT

> <PDB ID(s) of Target Chain>


> <UniProt (SwissProt) Recommended Name of Target Chain>
Sterol O-acyltransferase 2

> <UniProt (SwissProt) Entry Name of Target Chain>
ACAT-2

> <UniProt (SwissProt) Primary ID of Target Chain>
O75908

> <UniProt (SwissProt) Secondary ID(s) of Target Chain>
F5H7W4 I6L9H9 Q4VB99 Q4VBA1 Q96TD4 Q9UNR2

> <UniProt (SwissProt) Alternative ID(s) of Target Chain>


> <UniProt (TrEMBL) Submitted Name of Target Chain>


> <UniProt (TrEMBL) Entry Name of Target Chain>


> <UniProt (TrEMBL) Primary ID of Target Chain>


> <UniProt (TrEMBL) Secondary ID(s) of Target Chain>


> <UniProt (TrEMBL) Alternative ID(s) of Target Chain>


$$$$

  Mrv0541 11241417102D          

 50 55  0  0  0  0            999 V2000
   15.1750  -10.6666    0.0000 C   0  0  0  0  0  0  0  0  0  0  0  0
   14.7666   -9.9541    0.0000 C   0  0  2  0  0  0  0  0  0  0  0  0
   14.3537  -10.6640    0.0000 C   0  0  0  0  0  0  0  0  0  0  0  0
   14.0583   -8.7208    0.0000 C   0  0  0  0  0  0  0  0  0  0  0  0
   14.0583   -9.5458    0.0000 C   0  0  2  0  0  0  0  0  0  0  0  0
   14.7703   -8.3042    0.0000 C   0  0  0  0  0  0  0  0  0  0  0  0
   15.4823   -8.7208    0.0000 C   0  0  1  0  0  0  0  0  0  0  0  0
   15.4834   -9.5458    0.0000 C   0  0  1  0  0  0  0  0  0  0  0  0
   16.1945   -9.9551    0.0000 C   0  0  0  0  0  0  0  0  0  0  0  0
   16.9090   -9.5440    0.0000 C   0  0  1  0  0  0  0  0  0  0  0  0
   16.1923   -8.3051    0.0000 C   0  0  2  0  0  0  0  0  0  0  0  0
   16.9076   -8.7237    0.0000 C   0  0  2  0  0  0  0  0  0  0  0  0
   17.6236   -8.3157    0.0000 O   0  0  0  0  0  0  0  0  0  0  0  0
   16.1931   -7.4788    0.0000 C   0  0  2  0  0  0  0  0  0  0  0  0
   16.9155   -7.0692    0.0000 C   0  0  0  0  0  0  0  0  0  0  0  0
   17.6336   -7.4914    0.0000 C   0  0  0  0  0  0  0  0  0  0  0  0
   18.3542   -7.0828    0.0000 C   0  0  0  0  0  0  0  0  0  0  0  0
   18.3631   -6.2506    0.0000 C   0  0  0  0  0  0  0  0  0  0  0  0
   17.6450   -5.8284    0.0000 O   0  0  0  0  0  0  0  0  0  0  0  0
   16.9180   -6.2385    0.0000 C   0  0  0  0  0  0  0  0  0  0  0  0
   19.0768   -5.8463    0.0000 C   0  0  0  0  0  0  0  0  0  0  0  0
   19.7878   -6.2671    0.0000 C   0  0  0  0  0  0  0  0  0  0  0  0
   20.5056   -5.8620    0.0000 N   0  0  0  0  0  0  0  0  0  0  0  0
   20.5136   -5.0361    0.0000 C   0  0  0  0  0  0  0  0  0  0  0  0
   19.7980   -4.6171    0.0000 C   0  0  0  0  0  0  0  0  0  0  0  0
   19.0832   -5.0247    0.0000 C   0  0  0  0  0  0  0  0  0  0  0  0
   16.2063   -5.8214    0.0000 O   0  0  0  0  0  0  0  0  0  0  0  0
   17.6235   -9.9564    0.0000 O   0  0  0  0  0  0  0  0  0  0  0  0
   18.3379   -9.5438    0.0000 C   0  0  0  0  0  0  0  0  0  0  0  0
   19.0525   -9.9562    0.0000 C   0  0  0  0  0  0  0  0  0  0  0  0
   18.3378   -8.7188    0.0000 O   0  0  0  0  0  0  0  0  0  0  0  0
   13.3445   -9.9593    0.0000 O   0  0  0  0  0  0  0  0  0  0  0  0
   12.6294   -9.5479    0.0000 C   0  0  0  0  0  0  0  0  0  0  0  0
   11.9155   -9.9615    0.0000 C   0  0  0  0  0  0  0  0  0  0  0  0
   12.6282   -8.7228    0.0000 O   0  0  0  0  0  0  0  0  0  0  0  0
   14.7602  -11.3798    0.0000 O   0  0  0  0  0  0  0  0  0  0  0  0
   15.1704  -12.0956    0.0000 C   0  0  0  0  0  0  0  0  0  0  0  0
   14.7556  -12.8087    0.0000 C   0  0  0  0  0  0  0  0  0  0  0  0
   15.9954  -12.0982    0.0000 O   0  0  0  0  0  0  0  0  0  0  0  0
   15.4805   -7.0631    0.0000 O   0  0  0  0  0  0  0  0  0  0  0  0
   15.4749   -7.8958    0.0000 C   0  0  0  0  0  0  0  0  0  0  0  0
   16.8999   -7.8958    0.0000 C   0  0  0  0  0  0  0  0  0  0  0  0
   19.0473  -10.7802    0.0000 C   0  0  0  0  0  0  0  0  0  0  0  0
   19.7610  -11.1925    0.0000 C   0  0  0  0  0  0  0  0  0  0  0  0
   20.4764  -10.7799    0.0000 C   0  0  0  0  0  0  0  0  0  0  0  0
   20.4737   -9.9507    0.0000 C   0  0  0  0  0  0  0  0  0  0  0  0
   19.7594   -9.5420    0.0000 C   0  0  0  0  0  0  0  0  0  0  0  0
   21.1914  -11.1914    0.0000 C   0  0  0  0  0  0  0  0  0  0  0  0
   21.9049  -11.5969    0.0000 N   0  0  0  0  0  0  0  0  0  0  0  0
   21.1866   -9.5355    0.0000 F   0  0  0  0  0  0  0  0  0  0  0  0
  2  1  1  6  0  0  0
  2  3  1  1  0  0  0
  5  4  1  0  0  0  0
  4  6  1  0  0  0  0
  2  5  1  0  0  0  0
  8  2  1  0  0  0  0
  7  6  1  0  0  0  0
  7  8  1  0  0  0  0
 11  7  1  1  0  0  0
  8  9  1  1  0  0  0
 10  9  1  0  0  0  0
 12 10  1  0  0  0  0
 11 12  1  0  0  0  0
 11 14  1  0  0  0  0
 12 13  1  0  0  0  0
 13 16  1  0  0  0  0
 14 15  1  0  0  0  0
 15 16  2  0  0  0  0
 15 20  1  0  0  0  0
 16 17  1  0  0  0  0
 17 18  2  0  0  0  0
 18 19  1  0  0  0  0
 19 20  1  0  0  0  0
 21 22  2  0  0  0  0
 22 23  1  0  0  0  0
 23 24  2  0  0  0  0
 24 25  1  0  0  0  0
 25 26  2  0  0  0  0
 26 21  1  0  0  0  0
 18 21  1  0  0  0  0
 20 27  2  0  0  0  0
 10 28  1  1  0  0  0
 28 29  1  0  0  0  0
 29 30  1  0  0  0  0
 29 31  2  0  0  0  0
  5 32  1  1  0  0  0
 32 33  1  0  0  0  0
 33 34  1  0  0  0  0
 33 35  2  0  0  0  0
  1 36  1  0  0  0  0
 36 37  1  0  0  0  0
 37 38  1  0  0  0  0
 37 39  2  0  0  0  0
 14 40  1  1  0  0  0
  7 41  1  1  0  0  0
 12 42  1  1  0  0  0
 30 43  2  0  0  0  0
 43 44  1  0  0  0  0
 44 45  2  0  0  0  0
 45 46  1  0  0  0  0
 46 47  2  0  0  0  0
 47 30  1  0  0  0  0
 45 48  1  0  0  0  0
 48 49  3  0  0  0  0
 46 50  1  0  0  0  0
M  END
> <From>
www.bindingDB.org

> <BindingDB Reactant_set_id>
51053262

> <Ligand InChI>
InChI=1S/C37H37FN2O10/c1-19(41)46-18-36(4)27-15-29(49-33(44)21-8-9-22(16-39)24(38)13-21)37(5)32(35(27,3)11-10-28(36)47-20(2)42)31(43)30-26(50-37)14-25(48-34(30)45)23-7-6-12-40-17-23/h6-9,12-14,17,27-29,31-32,43H,10-11,15,18H2,1-5H3/t27-,28+,29+,31+,32-,35+,36+,37-/m1/s1

> <Ligand InChI Key>
QVECAJGDAAZIDE-ZRPSWOMSSA-N

> <BindingDB MonomerID>
50429572

> <BindingDB Ligand Name>
CHEMBL2334217

> <Target Name>
Sterol O-acyltransferase 2

> <Target Source Organism According to Curator or DataSource>


> <Ki (nM)>


> <IC50 (nM)>
 7.8

> <Kd (nM)>


> <EC50 (nM)>


> <kon (M-1-s-1)>


> <koff (s-1)>


> <pH>


> <Temp (C)>


> <Curation/DataSource>
ChEMBL

> <Article DOI>
10.1016/j.bmcl.2012.12.099

> <BindingDB Entry DOI>
10.7270/Q2P270HW

> <PMID>
23369538

> <PubChem AID>


> <Patent Number>


> <Authors>
Ohtawa, M; Yamazaki, H; Ohte, S; Matsuda, D; Ohshiro, T; Rudel, LL; Omura, S; Tomoda, H; Nagamitsu, T

> <Institution>
Kitasato University

> <Link to Ligand in BindingDB>
http://www.bindingdb.org/bind/chemsearch/marvin/MolStructure.jsp?monomerid=50429572

> <Link to Target in BindingDB>
http://www.bindingdb.org/jsp/dbsearch/PrimarySearch_ki.jsp?energyterm=kJ/mole&tag=pol&polymerid=7773&target=Sterol+O-acyltransferase+2&column=ki&startPg=0&Increment=50&submit=Search

> <Link to Ligand-Target Pair in BindingDB>
http://www.bindingdb.org/jsp/dbsearch/PrimarySearch_ki.jsp?energyterm=kJ/mole&tag=r21&monomerid=50429572&enzyme=Sterol+O-acyltransferase+2&column=ki&startPg=0&Increment=50&submit=Search

> <Ligand HET ID in PDB>


> <PDB ID(s) for Ligand-Target Complex>


> <PubChem CID>
71559662

> <PubChem SID>
164158447

> <ChEBI ID of Ligand>


> <ChEMBL ID of Ligand>
CHEMBL2334217

> <DrugBank ID of Ligand>


> <IUPHAR_GRAC ID of Ligand>


> <KEGG ID of Ligand>


> <ZINC ID of Ligand>
ZINC95587030

> <Number of Protein Chains in Target (>1 implies a multichain complex)>
1

> <BindingDB Target Chain Sequence>
MEPGGARLRLQRTEGLGGERERQPCGDGNTETHRAPDLVQWTRHMEAVKAQLLEQAQGQLRELLDRAMREAIQSYPSQDKPLPPPPPGSLSRTQEPSLGKQKVFIIRKSLLDELMEVQHFRTIYHMFIAGLCVFIISTLAIDFIDEGRLLLEFDLLIFSFGQLPLALVTWVPMFLSTLLAPYQALRLWARGTWTQATGLGCALLAAHAVVLCALPVHVAVEHQLPPASRCVLVFEQVRFLMKSYSFLREAVPGTLRARRGEGIQAPSFSSYLYFLFCPTLIYRETYPRTPYVRWNYVAKNFAQALGCVLYACFILGRLCVPVFANMSREPFSTRALVLSILHATLPGIFMLLLIFFAFLHCWLNAFAEMLRFGDRMFYRDWWNSTSFSNYYRTWNVVVHDWLYSYVYQDGLRLLGARARGVAMLGVFLVSAVAHEYIFCFVLGFFYPVMLILFLVIGGMLNFMMHDQRTGPAWNVLMWTMLFLGQGIQVSLYCQEWYARRHCPLPQATFWGLVTPRSWSCHT

> <PDB ID(s) of Target Chain>


> <UniProt (SwissProt) Recommended Name of Target Chain>
Sterol O-acyltransferase 2

> <UniProt (SwissProt) Entry Name of Target Chain>
ACAT-2

> <UniProt (SwissProt) Primary ID of Target Chain>
O75908

> <UniProt (SwissProt) Secondary ID(s) of Target Chain>
F5H7W4 I6L9H9 Q4VB99 Q4VBA1 Q96TD4 Q9UNR2

> <UniProt (SwissProt) Alternative ID(s) of Target Chain>


> <UniProt (TrEMBL) Submitted Name of Target Chain>


> <UniProt (TrEMBL) Entry Name of Target Chain>


> <UniProt (TrEMBL) Primary ID of Target Chain>


> <UniProt (TrEMBL) Secondary ID(s) of Target Chain>


> <UniProt (TrEMBL) Alternative ID(s) of Target Chain>


$$$$

  Mrv0541 11241417102D          

 50 55  0  0  0  0            999 V2000
   15.1753  -10.6668    0.0000 C   0  0  0  0  0  0  0  0  0  0  0  0
   14.7669   -9.9543    0.0000 C   0  0  2  0  0  0  0  0  0  0  0  0
   14.3540  -10.6642    0.0000 C   0  0  0  0  0  0  0  0  0  0  0  0
   14.0586   -8.7210    0.0000 C   0  0  0  0  0  0  0  0  0  0  0  0
   14.0586   -9.5460    0.0000 C   0  0  2  0  0  0  0  0  0  0  0  0
   14.7705   -8.3043    0.0000 C   0  0  0  0  0  0  0  0  0  0  0  0
   15.4826   -8.7210    0.0000 C   0  0  1  0  0  0  0  0  0  0  0  0
   15.4837   -9.5460    0.0000 C   0  0  1  0  0  0  0  0  0  0  0  0
   16.1947   -9.9553    0.0000 C   0  0  0  0  0  0  0  0  0  0  0  0
   16.9093   -9.5442    0.0000 C   0  0  1  0  0  0  0  0  0  0  0  0
   16.1926   -8.3052    0.0000 C   0  0  2  0  0  0  0  0  0  0  0  0
   16.9079   -8.7238    0.0000 C   0  0  2  0  0  0  0  0  0  0  0  0
   17.6239   -8.3158    0.0000 O   0  0  0  0  0  0  0  0  0  0  0  0
   16.1934   -7.4789    0.0000 C   0  0  2  0  0  0  0  0  0  0  0  0
   16.9158   -7.0693    0.0000 C   0  0  0  0  0  0  0  0  0  0  0  0
   17.6339   -7.4915    0.0000 C   0  0  0  0  0  0  0  0  0  0  0  0
   18.3545   -7.0830    0.0000 C   0  0  0  0  0  0  0  0  0  0  0  0
   18.3634   -6.2507    0.0000 C   0  0  0  0  0  0  0  0  0  0  0  0
   17.6453   -5.8285    0.0000 O   0  0  0  0  0  0  0  0  0  0  0  0
   16.9183   -6.2386    0.0000 C   0  0  0  0  0  0  0  0  0  0  0  0
   19.0772   -5.8464    0.0000 C   0  0  0  0  0  0  0  0  0  0  0  0
   19.7881   -6.2672    0.0000 C   0  0  0  0  0  0  0  0  0  0  0  0
   20.5059   -5.8621    0.0000 N   0  0  0  0  0  0  0  0  0  0  0  0
   20.5140   -5.0361    0.0000 C   0  0  0  0  0  0  0  0  0  0  0  0
   19.7983   -4.6172    0.0000 C   0  0  0  0  0  0  0  0  0  0  0  0
   19.0835   -5.0247    0.0000 C   0  0  0  0  0  0  0  0  0  0  0  0
   16.2065   -5.8215    0.0000 O   0  0  0  0  0  0  0  0  0  0  0  0
   17.6238   -9.9566    0.0000 O   0  0  0  0  0  0  0  0  0  0  0  0
   18.3383   -9.5440    0.0000 C   0  0  0  0  0  0  0  0  0  0  0  0
   19.0528   -9.9564    0.0000 C   0  0  0  0  0  0  0  0  0  0  0  0
   18.3382   -8.7190    0.0000 O   0  0  0  0  0  0  0  0  0  0  0  0
   13.3447   -9.9595    0.0000 O   0  0  0  0  0  0  0  0  0  0  0  0
   12.6296   -9.5480    0.0000 C   0  0  0  0  0  0  0  0  0  0  0  0
   11.9157   -9.9616    0.0000 C   0  0  0  0  0  0  0  0  0  0  0  0
   12.6284   -8.7230    0.0000 O   0  0  0  0  0  0  0  0  0  0  0  0
   14.7604  -11.3800    0.0000 O   0  0  0  0  0  0  0  0  0  0  0  0
   15.1706  -12.0958    0.0000 C   0  0  0  0  0  0  0  0  0  0  0  0
   14.7559  -12.8089    0.0000 C   0  0  0  0  0  0  0  0  0  0  0  0
   15.9957  -12.0984    0.0000 O   0  0  0  0  0  0  0  0  0  0  0  0
   15.4808   -7.0633    0.0000 O   0  0  0  0  0  0  0  0  0  0  0  0
   15.4752   -7.8960    0.0000 C   0  0  0  0  0  0  0  0  0  0  0  0
   16.9002   -7.8960    0.0000 C   0  0  0  0  0  0  0  0  0  0  0  0
   19.0476  -10.7804    0.0000 C   0  0  0  0  0  0  0  0  0  0  0  0
   19.7614  -11.1927    0.0000 C   0  0  0  0  0  0  0  0  0  0  0  0
   20.4767  -10.7801    0.0000 C   0  0  0  0  0  0  0  0  0  0  0  0
   20.4740   -9.9508    0.0000 C   0  0  0  0  0  0  0  0  0  0  0  0
   19.7597   -9.5422    0.0000 C   0  0  0  0  0  0  0  0  0  0  0  0
   21.1870   -9.5357    0.0000 F   0  0  0  0  0  0  0  0  0  0  0  0
   19.7554   -8.7172    0.0000 F   0  0  0  0  0  0  0  0  0  0  0  0
   21.1918  -11.1916    0.0000 F   0  0  0  0  0  0  0  0  0  0  0  0
  2  1  1  6  0  0  0
  2  3  1  1  0  0  0
  5  4  1  0  0  0  0
  4  6  1  0  0  0  0
  2  5  1  0  0  0  0
  8  2  1  0  0  0  0
  7  6  1  0  0  0  0
  7  8  1  0  0  0  0
 11  7  1  1  0  0  0
  8  9  1  1  0  0  0
 10  9  1  0  0  0  0
 12 10  1  0  0  0  0
 11 12  1  0  0  0  0
 11 14  1  0  0  0  0
 12 13  1  0  0  0  0
 13 16  1  0  0  0  0
 14 15  1  0  0  0  0
 15 16  2  0  0  0  0
 15 20  1  0  0  0  0
 16 17  1  0  0  0  0
 17 18  2  0  0  0  0
 18 19  1  0  0  0  0
 19 20  1  0  0  0  0
 21 22  2  0  0  0  0
 22 23  1  0  0  0  0
 23 24  2  0  0  0  0
 24 25  1  0  0  0  0
 25 26  2  0  0  0  0
 26 21  1  0  0  0  0
 18 21  1  0  0  0  0
 20 27  2  0  0  0  0
 10 28  1  1  0  0  0
 28 29  1  0  0  0  0
 29 30  1  0  0  0  0
 29 31  2  0  0  0  0
  5 32  1  1  0  0  0
 32 33  1  0  0  0  0
 33 34  1  0  0  0  0
 33 35  2  0  0  0  0
  1 36  1  0  0  0  0
 36 37  1  0  0  0  0
 37 38  1  0  0  0  0
 37 39  2  0  0  0  0
 14 40  1  1  0  0  0
  7 41  1  1  0  0  0
 12 42  1  1  0  0  0
 30 43  2  0  0  0  0
 43 44  1  0  0  0  0
 44 45  2  0  0  0  0
 45 46  1  0  0  0  0
 46 47  2  0  0  0  0
 47 30  1  0  0  0  0
 46 48  1  0  0  0  0
 47 49  1  0  0  0  0
 45 50  1  0  0  0  0
M  END
> <From>
www.bindingDB.org

> <BindingDB Reactant_set_id>
51053261

> <Ligand InChI>
InChI=1S/C36H36F3NO10/c1-17(41)46-16-35(4)24-14-26(49-32(44)20-8-9-21(37)29(39)28(20)38)36(5)31(34(24,3)11-10-25(35)47-18(2)42)30(43)27-23(50-36)13-22(48-33(27)45)19-7-6-12-40-15-19/h6-9,12-13,15,24-26,30-31,43H,10-11,14,16H2,1-5H3/t24-,25+,26+,30+,31-,34+,35+,36-/m1/s1

> <Ligand InChI Key>
SVYJIBZKWJJCAK-AKDLFGOOSA-N

> <BindingDB MonomerID>
50429571

> <BindingDB Ligand Name>
CHEMBL2334218

> <Target Name>
Sterol O-acyltransferase 2

> <Target Source Organism According to Curator or DataSource>


> <Ki (nM)>


> <IC50 (nM)>
 8.1

> <Kd (nM)>


> <EC50 (nM)>


> <kon (M-1-s-1)>


> <koff (s-1)>


> <pH>


> <Temp (C)>


> <Curation/DataSource>
ChEMBL

> <Article DOI>
10.1016/j.bmcl.2012.12.099

> <BindingDB Entry DOI>
10.7270/Q2P270HW

> <PMID>
23369538

> <PubChem AID>


> <Patent Number>


> <Authors>
Ohtawa, M; Yamazaki, H; Ohte, S; Matsuda, D; Ohshiro, T; Rudel, LL; Omura, S; Tomoda, H; Nagamitsu, T

> <Institution>
Kitasato University

> <Link to Ligand in BindingDB>
http://www.bindingdb.org/bind/chemsearch/marvin/MolStructure.jsp?monomerid=50429571

> <Link to Target in BindingDB>
http://www.bindingdb.org/jsp/dbsearch/PrimarySearch_ki.jsp?energyterm=kJ/mole&tag=pol&polymerid=7773&target=Sterol+O-acyltransferase+2&column=ki&startPg=0&Increment=50&submit=Search

> <Link to Ligand-Target Pair in BindingDB>
http://www.bindingdb.org/jsp/dbsearch/PrimarySearch_ki.jsp?energyterm=kJ/mole&tag=r21&monomerid=50429571&enzyme=Sterol+O-acyltransferase+2&column=ki&startPg=0&Increment=50&submit=Search

> <Ligand HET ID in PDB>


> <PDB ID(s) for Ligand-Target Complex>


> <PubChem CID>
71559663

> <PubChem SID>
164158446

> <ChEBI ID of Ligand>


> <ChEMBL ID of Ligand>
CHEMBL2334218

> <DrugBank ID of Ligand>


> <IUPHAR_GRAC ID of Ligand>


> <KEGG ID of Ligand>


> <ZINC ID of Ligand>
ZINC95587838

> <Number of Protein Chains in Target (>1 implies a multichain complex)>
1

> <BindingDB Target Chain Sequence>
MEPGGARLRLQRTEGLGGERERQPCGDGNTETHRAPDLVQWTRHMEAVKAQLLEQAQGQLRELLDRAMREAIQSYPSQDKPLPPPPPGSLSRTQEPSLGKQKVFIIRKSLLDELMEVQHFRTIYHMFIAGLCVFIISTLAIDFIDEGRLLLEFDLLIFSFGQLPLALVTWVPMFLSTLLAPYQALRLWARGTWTQATGLGCALLAAHAVVLCALPVHVAVEHQLPPASRCVLVFEQVRFLMKSYSFLREAVPGTLRARRGEGIQAPSFSSYLYFLFCPTLIYRETYPRTPYVRWNYVAKNFAQALGCVLYACFILGRLCVPVFANMSREPFSTRALVLSILHATLPGIFMLLLIFFAFLHCWLNAFAEMLRFGDRMFYRDWWNSTSFSNYYRTWNVVVHDWLYSYVYQDGLRLLGARARGVAMLGVFLVSAVAHEYIFCFVLGFFYPVMLILFLVIGGMLNFMMHDQRTGPAWNVLMWTMLFLGQGIQVSLYCQEWYARRHCPLPQATFWGLVTPRSWSCHT

> <PDB ID(s) of Target Chain>


> <UniProt (SwissProt) Recommended Name of Target Chain>
Sterol O-acyltransferase 2

> <UniProt (SwissProt) Entry Name of Target Chain>
ACAT-2

> <UniProt (SwissProt) Primary ID of Target Chain>
O75908

> <UniProt (SwissProt) Secondary ID(s) of Target Chain>
F5H7W4 I6L9H9 Q4VB99 Q4VBA1 Q96TD4 Q9UNR2

> <UniProt (SwissProt) Alternative ID(s) of Target Chain>


> <UniProt (TrEMBL) Submitted Name of Target Chain>


> <UniProt (TrEMBL) Entry Name of Target Chain>


> <UniProt (TrEMBL) Primary ID of Target Chain>


> <UniProt (TrEMBL) Secondary ID(s) of Target Chain>


> <UniProt (TrEMBL) Alternative ID(s) of Target Chain>


$$$$

  Mrv0541 11241417102D          

 49 54  0  0  0  0            999 V2000
   12.3420  -21.4880    0.0000 C   0  0  0  0  0  0  0  0  0  0  0  0
   11.9336  -20.7755    0.0000 C   0  0  2  0  0  0  0  0  0  0  0  0
   11.5207  -21.4854    0.0000 C   0  0  0  0  0  0  0  0  0  0  0  0
   11.2253  -19.5421    0.0000 C   0  0  0  0  0  0  0  0  0  0  0  0
   11.2253  -20.3672    0.0000 C   0  0  2  0  0  0  0  0  0  0  0  0
   11.9373  -19.1255    0.0000 C   0  0  0  0  0  0  0  0  0  0  0  0
   12.6493  -19.5421    0.0000 C   0  0  1  0  0  0  0  0  0  0  0  0
   12.6504  -20.3672    0.0000 C   0  0  1  0  0  0  0  0  0  0  0  0
   13.3615  -20.7764    0.0000 C   0  0  0  0  0  0  0  0  0  0  0  0
   14.0761  -20.3653    0.0000 C   0  0  1  0  0  0  0  0  0  0  0  0
   13.3594  -19.1265    0.0000 C   0  0  2  0  0  0  0  0  0  0  0  0
   14.0746  -19.5450    0.0000 C   0  0  2  0  0  0  0  0  0  0  0  0
   14.7906  -19.1370    0.0000 O   0  0  0  0  0  0  0  0  0  0  0  0
   13.3602  -18.3000    0.0000 C   0  0  2  0  0  0  0  0  0  0  0  0
   14.0825  -17.8905    0.0000 C   0  0  0  0  0  0  0  0  0  0  0  0
   14.8006  -18.3127    0.0000 C   0  0  0  0  0  0  0  0  0  0  0  0
   15.5213  -17.9042    0.0000 C   0  0  0  0  0  0  0  0  0  0  0  0
   15.5302  -17.0718    0.0000 C   0  0  0  0  0  0  0  0  0  0  0  0
   14.8121  -16.6496    0.0000 O   0  0  0  0  0  0  0  0  0  0  0  0
   14.0851  -17.0598    0.0000 C   0  0  0  0  0  0  0  0  0  0  0  0
   16.2439  -16.6676    0.0000 C   0  0  0  0  0  0  0  0  0  0  0  0
   16.9549  -17.0884    0.0000 C   0  0  0  0  0  0  0  0  0  0  0  0
   17.6727  -16.6832    0.0000 N   0  0  0  0  0  0  0  0  0  0  0  0
   17.6808  -15.8574    0.0000 C   0  0  0  0  0  0  0  0  0  0  0  0
   16.9651  -15.4383    0.0000 C   0  0  0  0  0  0  0  0  0  0  0  0
   16.2502  -15.8459    0.0000 C   0  0  0  0  0  0  0  0  0  0  0  0
   13.3733  -16.6426    0.0000 O   0  0  0  0  0  0  0  0  0  0  0  0
   14.7905  -20.7778    0.0000 O   0  0  0  0  0  0  0  0  0  0  0  0
   15.5050  -20.3651    0.0000 C   0  0  0  0  0  0  0  0  0  0  0  0
   16.2195  -20.7776    0.0000 C   0  0  0  0  0  0  0  0  0  0  0  0
   15.5049  -19.5401    0.0000 O   0  0  0  0  0  0  0  0  0  0  0  0
   10.5113  -20.7807    0.0000 O   0  0  0  0  0  0  0  0  0  0  0  0
    9.7963  -20.3692    0.0000 C   0  0  0  0  0  0  0  0  0  0  0  0
    9.0824  -20.7828    0.0000 C   0  0  0  0  0  0  0  0  0  0  0  0
    9.7951  -19.5443    0.0000 O   0  0  0  0  0  0  0  0  0  0  0  0
   11.9272  -22.2012    0.0000 O   0  0  0  0  0  0  0  0  0  0  0  0
   12.3374  -22.9170    0.0000 C   0  0  0  0  0  0  0  0  0  0  0  0
   11.9226  -23.6301    0.0000 C   0  0  0  0  0  0  0  0  0  0  0  0
   13.1624  -22.9196    0.0000 O   0  0  0  0  0  0  0  0  0  0  0  0
   12.6475  -17.8844    0.0000 O   0  0  0  0  0  0  0  0  0  0  0  0
   12.6420  -18.7171    0.0000 C   0  0  0  0  0  0  0  0  0  0  0  0
   14.0670  -18.7171    0.0000 C   0  0  0  0  0  0  0  0  0  0  0  0
   16.2144  -21.6016    0.0000 C   0  0  0  0  0  0  0  0  0  0  0  0
   16.9281  -22.0139    0.0000 C   0  0  0  0  0  0  0  0  0  0  0  0
   17.6435  -21.6013    0.0000 C   0  0  0  0  0  0  0  0  0  0  0  0
   17.6408  -20.7720    0.0000 C   0  0  0  0  0  0  0  0  0  0  0  0
   16.9265  -20.3634    0.0000 C   0  0  0  0  0  0  0  0  0  0  0  0
   18.3538  -20.3569    0.0000 S   0  0  0  0  0  0  0  0  0  0  0  0
   19.0698  -20.7668    0.0000 C   0  0  0  0  0  0  0  0  0  0  0  0
  2  1  1  6  0  0  0
  2  3  1  1  0  0  0
  5  4  1  0  0  0  0
  4  6  1  0  0  0  0
  2  5  1  0  0  0  0
  8  2  1  0  0  0  0
  7  6  1  0  0  0  0
  7  8  1  0  0  0  0
 11  7  1  1  0  0  0
  8  9  1  1  0  0  0
 10  9  1  0  0  0  0
 12 10  1  0  0  0  0
 11 12  1  0  0  0  0
 11 14  1  0  0  0  0
 12 13  1  0  0  0  0
 13 16  1  0  0  0  0
 14 15  1  0  0  0  0
 15 16  2  0  0  0  0
 15 20  1  0  0  0  0
 16 17  1  0  0  0  0
 17 18  2  0  0  0  0
 18 19  1  0  0  0  0
 19 20  1  0  0  0  0
 21 22  2  0  0  0  0
 22 23  1  0  0  0  0
 23 24  2  0  0  0  0
 24 25  1  0  0  0  0
 25 26  2  0  0  0  0
 26 21  1  0  0  0  0
 18 21  1  0  0  0  0
 20 27  2  0  0  0  0
 10 28  1  1  0  0  0
 28 29  1  0  0  0  0
 29 30  1  0  0  0  0
 29 31  2  0  0  0  0
  5 32  1  1  0  0  0
 32 33  1  0  0  0  0
 33 34  1  0  0  0  0
 33 35  2  0  0  0  0
  1 36  1  0  0  0  0
 36 37  1  0  0  0  0
 37 38  1  0  0  0  0
 37 39  2  0  0  0  0
 14 40  1  1  0  0  0
  7 41  1  1  0  0  0
 12 42  1  1  0  0  0
 30 43  2  0  0  0  0
 43 44  1  0  0  0  0
 44 45  2  0  0  0  0
 45 46  1  0  0  0  0
 46 47  2  0  0  0  0
 47 30  1  0  0  0  0
 46 48  1  0  0  0  0
 48 49  1  0  0  0  0
M  END
> <From>
www.bindingDB.org

> <BindingDB Reactant_set_id>
51053278

> <Ligand InChI>
InChI=1S/C37H41NO10S/c1-20(39)44-19-36(4)27-17-29(47-33(42)22-9-7-11-24(15-22)49-6)37(5)32(35(27,3)13-12-28(36)45-21(2)40)31(41)30-26(48-37)16-25(46-34(30)43)23-10-8-14-38-18-23/h7-11,14-16,18,27-29,31-32,41H,12-13,17,19H2,1-6H3/t27-,28+,29+,31+,32-,35+,36+,37-/m1/s1

> <Ligand InChI Key>
LHJDUDHPEOXQAT-ZRPSWOMSSA-N

> <BindingDB MonomerID>
50429588

> <BindingDB Ligand Name>
CHEMBL2334201

> <Target Name>
Sterol O-acyltransferase 2

> <Target Source Organism According to Curator or DataSource>


> <Ki (nM)>


> <IC50 (nM)>
 9.0

> <Kd (nM)>


> <EC50 (nM)>


> <kon (M-1-s-1)>


> <koff (s-1)>


> <pH>


> <Temp (C)>


> <Curation/DataSource>
ChEMBL

> <Article DOI>
10.1016/j.bmcl.2012.12.099

> <BindingDB Entry DOI>
10.7270/Q2P270HW

> <PMID>
23369538

> <PubChem AID>


> <Patent Number>


> <Authors>
Ohtawa, M; Yamazaki, H; Ohte, S; Matsuda, D; Ohshiro, T; Rudel, LL; Omura, S; Tomoda, H; Nagamitsu, T

> <Institution>
Kitasato University

> <Link to Ligand in BindingDB>
http://www.bindingdb.org/bind/chemsearch/marvin/MolStructure.jsp?monomerid=50429588

> <Link to Target in BindingDB>
http://www.bindingdb.org/jsp/dbsearch/PrimarySearch_ki.jsp?energyterm=kJ/mole&tag=pol&polymerid=7773&target=Sterol+O-acyltransferase+2&column=ki&startPg=0&Increment=50&submit=Search

> <Link to Ligand-Target Pair in BindingDB>
http://www.bindingdb.org/jsp/dbsearch/PrimarySearch_ki.jsp?energyterm=kJ/mole&tag=r21&monomerid=50429588&enzyme=Sterol+O-acyltransferase+2&column=ki&startPg=0&Increment=50&submit=Search

> <Ligand HET ID in PDB>


> <PDB ID(s) for Ligand-Target Complex>


> <PubChem CID>
71561177

> <PubChem SID>
164158463

> <ChEBI ID of Ligand>


> <ChEMBL ID of Ligand>
CHEMBL2334201

> <DrugBank ID of Ligand>


> <IUPHAR_GRAC ID of Ligand>


> <KEGG ID of Ligand>


> <ZINC ID of Ligand>
ZINC95591447

> <Number of Protein Chains in Target (>1 implies a multichain complex)>
1

> <BindingDB Target Chain Sequence>
MEPGGARLRLQRTEGLGGERERQPCGDGNTETHRAPDLVQWTRHMEAVKAQLLEQAQGQLRELLDRAMREAIQSYPSQDKPLPPPPPGSLSRTQEPSLGKQKVFIIRKSLLDELMEVQHFRTIYHMFIAGLCVFIISTLAIDFIDEGRLLLEFDLLIFSFGQLPLALVTWVPMFLSTLLAPYQALRLWARGTWTQATGLGCALLAAHAVVLCALPVHVAVEHQLPPASRCVLVFEQVRFLMKSYSFLREAVPGTLRARRGEGIQAPSFSSYLYFLFCPTLIYRETYPRTPYVRWNYVAKNFAQALGCVLYACFILGRLCVPVFANMSREPFSTRALVLSILHATLPGIFMLLLIFFAFLHCWLNAFAEMLRFGDRMFYRDWWNSTSFSNYYRTWNVVVHDWLYSYVYQDGLRLLGARARGVAMLGVFLVSAVAHEYIFCFVLGFFYPVMLILFLVIGGMLNFMMHDQRTGPAWNVLMWTMLFLGQGIQVSLYCQEWYARRHCPLPQATFWGLVTPRSWSCHT

> <PDB ID(s) of Target Chain>


> <UniProt (SwissProt) Recommended Name of Target Chain>
Sterol O-acyltransferase 2

> <UniProt (SwissProt) Entry Name of Target Chain>
ACAT-2

> <UniProt (SwissProt) Primary ID of Target Chain>
O75908

> <UniProt (SwissProt) Secondary ID(s) of Target Chain>
F5H7W4 I6L9H9 Q4VB99 Q4VBA1 Q96TD4 Q9UNR2

> <UniProt (SwissProt) Alternative ID(s) of Target Chain>


> <UniProt (TrEMBL) Submitted Name of Target Chain>


> <UniProt (TrEMBL) Entry Name of Target Chain>


> <UniProt (TrEMBL) Primary ID of Target Chain>


> <UniProt (TrEMBL) Secondary ID(s) of Target Chain>


> <UniProt (TrEMBL) Alternative ID(s) of Target Chain>


$$$$

  Mrv0541 11241418062D          

 49 56  0  0  0  0            999 V2000
   17.5876   -4.2249    0.0000 C   0  0  0  0  0  0  0  0  0  0  0  0
   18.3003   -3.8078    0.0000 C   0  0  0  0  0  0  0  0  0  0  0  0
   19.0130   -4.2249    0.0000 C   0  0  1  0  0  0  0  0  0  0  0  0
   19.0140   -5.0507    0.0000 C   0  0  1  0  0  0  0  0  0  0  0  0
   19.7258   -5.4603    0.0000 C   0  0  0  0  0  0  0  0  0  0  0  0
   20.4410   -5.0489    0.0000 C   0  0  1  0  0  0  0  0  0  0  0  0
   19.7237   -3.8088    0.0000 C   0  0  2  0  0  0  0  0  0  0  0  0
   20.4356   -4.2254    0.0000 C   0  0  2  0  0  0  0  0  0  0  0  0
   21.1485   -3.8193    0.0000 O   0  0  0  0  0  0  0  0  0  0  0  0
   19.7244   -2.9862    0.0000 C   0  0  2  0  0  0  0  0  0  0  0  0
   18.3003   -5.4593    0.0000 C   0  0  1  0  0  0  0  0  0  0  0  0
   17.5876   -5.0507    0.0000 C   0  0  1  0  0  0  0  0  0  0  0  0
   16.8812   -5.4613    0.0000 O   0  0  0  0  0  0  0  0  0  0  0  0
   16.8813   -6.2822    0.0000 C   0  0  1  0  0  0  0  0  0  0  0  0
   17.5941   -6.6910    0.0000 O   0  0  0  0  0  0  0  0  0  0  0  0
   18.3066   -6.2787    0.0000 C   0  0  0  0  0  0  0  0  0  0  0  0
   20.4435   -2.5784    0.0000 C   0  0  0  0  0  0  0  0  0  0  0  0
   21.1539   -2.9966    0.0000 C   0  0  0  0  0  0  0  0  0  0  0  0
   21.8673   -2.5927    0.0000 C   0  0  0  0  0  0  0  0  0  0  0  0
   21.8764   -1.7690    0.0000 C   0  0  0  0  0  0  0  0  0  0  0  0
   21.1661   -1.3509    0.0000 O   0  0  0  0  0  0  0  0  0  0  0  0
   20.4465   -1.7565    0.0000 C   0  0  0  0  0  0  0  0  0  0  0  0
   19.7341   -1.3385    0.0000 O   0  0  0  0  0  0  0  0  0  0  0  0
   19.0111   -2.5702    0.0000 O   0  0  0  0  0  0  0  0  0  0  0  0
   20.4279   -3.3991    0.0000 C   0  0  0  0  0  0  0  0  0  0  0  0
   21.1573   -5.4599    0.0000 O   0  0  0  0  0  0  0  0  0  0  0  0
   19.0057   -3.3991    0.0000 C   0  0  0  0  0  0  0  0  0  0  0  0
   18.2924   -4.6336    0.0000 C   0  0  0  0  0  0  0  0  0  0  0  0
   21.8713   -5.0452    0.0000 C   0  0  0  0  0  0  0  0  0  0  0  0
   22.5876   -5.4563    0.0000 C   0  0  0  0  0  0  0  0  0  0  0  0
   21.8693   -4.2194    0.0000 O   0  0  0  0  0  0  0  0  0  0  0  0
   22.5876   -6.2821    0.0000 C   0  0  0  0  0  0  0  0  0  0  0  0
   23.3029   -6.6931    0.0000 C   0  0  0  0  0  0  0  0  0  0  0  0
   24.0179   -6.2784    0.0000 C   0  0  0  0  0  0  0  0  0  0  0  0
   24.0132   -5.4483    0.0000 C   0  0  0  0  0  0  0  0  0  0  0  0
   23.2973   -5.0410    0.0000 C   0  0  0  0  0  0  0  0  0  0  0  0
   22.5959   -1.3638    0.0000 C   0  0  0  0  0  0  0  0  0  0  0  0
   23.3072   -1.7854    0.0000 C   0  0  0  0  0  0  0  0  0  0  0  0
   24.0259   -1.3802    0.0000 N   0  0  0  0  0  0  0  0  0  0  0  0
   24.0344   -0.5536    0.0000 C   0  0  0  0  0  0  0  0  0  0  0  0
   23.3183   -0.1338    0.0000 C   0  0  0  0  0  0  0  0  0  0  0  0
   22.6026   -0.5414    0.0000 C   0  0  0  0  0  0  0  0  0  0  0  0
   24.7347   -6.6884    0.0000 Cl  0  0  0  0  0  0  0  0  0  0  0  0
   16.1674   -6.6958    0.0000 C   0  0  0  0  0  0  0  0  0  0  0  0
   15.4530   -6.2833    0.0000 C   0  0  0  0  0  0  0  0  0  0  0  0
   14.7385   -6.6958    0.0000 C   0  0  0  0  0  0  0  0  0  0  0  0
   14.7385   -7.5208    0.0000 C   0  0  0  0  0  0  0  0  0  0  0  0
   15.4530   -7.9333    0.0000 C   0  0  0  0  0  0  0  0  0  0  0  0
   16.1674   -7.5208    0.0000 C   0  0  0  0  0  0  0  0  0  0  0  0
 12  1  1  0  0  0  0
  1  2  1  0  0  0  0
  4 11  1  0  0  0  0
  3  2  1  0  0  0  0
  3  4  1  0  0  0  0
  7  3  1  1  0  0  0
  4  5  1  1  0  0  0
  6  5  1  0  0  0  0
  8  6  1  0  0  0  0
  7  8  1  0  0  0  0
  7 10  1  0  0  0  0
  8  9  1  0  0  0  0
  9 18  1  0  0  0  0
 10 17  1  0  0  0  0
 11 12  1  0  0  0  0
 11 16  1  0  0  0  0
 12 13  1  1  0  0  0
 14 13  1  0  0  0  0
 14 15  1  0  0  0  0
 15 16  1  0  0  0  0
 17 18  2  0  0  0  0
 17 22  1  0  0  0  0
 18 19  1  0  0  0  0
 19 20  2  0  0  0  0
 20 21  1  0  0  0  0
 21 22  1  0  0  0  0
 22 23  2  0  0  0  0
 10 24  1  1  0  0  0
  8 25  1  1  0  0  0
  6 26  1  1  0  0  0
  3 27  1  1  0  0  0
 11 28  1  1  0  0  0
 26 29  1  0  0  0  0
 29 30  1  0  0  0  0
 29 31  2  0  0  0  0
 30 32  2  0  0  0  0
 32 33  1  0  0  0  0
 33 34  2  0  0  0  0
 34 35  1  0  0  0  0
 35 36  2  0  0  0  0
 36 30  1  0  0  0  0
 37 38  2  0  0  0  0
 38 39  1  0  0  0  0
 39 40  2  0  0  0  0
 40 41  1  0  0  0  0
 41 42  2  0  0  0  0
 42 37  1  0  0  0  0
 20 37  1  0  0  0  0
 34 43  1  0  0  0  0
 14 44  1  1  0  0  0
 49 44  2  0  0  0  0
 45 44  1  0  0  0  0
 45 46  2  0  0  0  0
 46 47  1  0  0  0  0
 47 48  2  0  0  0  0
 48 49  1  0  0  0  0
M  END
> <From>
www.bindingDB.org

> <BindingDB Reactant_set_id>
51068429

> <Ligand InChI>
InChI=1S/C39H38ClNO8/c1-37-16-15-29-38(2,21-45-36(48-29)23-8-5-4-6-9-23)28(37)19-30(47-34(43)22-11-13-25(40)14-12-22)39(3)33(37)32(42)31-27(49-39)18-26(46-35(31)44)24-10-7-17-41-20-24/h4-14,17-18,20,28-30,32-33,36,42H,15-16,19,21H2,1-3H3/t28-,29+,30+,32+,33-,36-,37+,38+,39-/m1/s1

> <Ligand InChI Key>
LUEHPNMNJQYIBP-MKSFZIRSSA-N

> <BindingDB MonomerID>
50436342

> <BindingDB Ligand Name>
CHEMBL2398817

> <Target Name>
Sterol O-acyltransferase 2

> <Target Source Organism According to Curator or DataSource>


> <Ki (nM)>


> <IC50 (nM)>
 9.0

> <Kd (nM)>


> <EC50 (nM)>


> <kon (M-1-s-1)>


> <koff (s-1)>


> <pH>


> <Temp (C)>


> <Curation/DataSource>
ChEMBL

> <Article DOI>
10.1016/j.bmcl.2013.04.075

> <BindingDB Entry DOI>
10.7270/Q2WD41Z9

> <PMID>
23711919

> <PubChem AID>


> <Patent Number>


> <Authors>
Ohtawa, M; Yamazaki, H; Ohte, S; Matsuda, D; Ohshiro, T; Rudel, LL; Omura, S; Tomoda, H; Nagamitsu, T

> <Institution>
Kitasato University

> <Link to Ligand in BindingDB>
http://www.bindingdb.org/bind/chemsearch/marvin/MolStructure.jsp?monomerid=50436342

> <Link to Target in BindingDB>
http://www.bindingdb.org/jsp/dbsearch/PrimarySearch_ki.jsp?energyterm=kJ/mole&tag=pol&polymerid=7773&target=Sterol+O-acyltransferase+2&column=ki&startPg=0&Increment=50&submit=Search

> <Link to Ligand-Target Pair in BindingDB>
http://www.bindingdb.org/jsp/dbsearch/PrimarySearch_ki.jsp?energyterm=kJ/mole&tag=r21&monomerid=50436342&enzyme=Sterol+O-acyltransferase+2&column=ki&startPg=0&Increment=50&submit=Search

> <Ligand HET ID in PDB>


> <PDB ID(s) for Ligand-Target Complex>


> <PubChem CID>
71682201

> <PubChem SID>
175448659

> <ChEBI ID of Ligand>


> <ChEMBL ID of Ligand>
CHEMBL2398817

> <DrugBank ID of Ligand>


> <IUPHAR_GRAC ID of Ligand>


> <KEGG ID of Ligand>


> <ZINC ID of Ligand>
ZINC96272255

> <Number of Protein Chains in Target (>1 implies a multichain complex)>
1

> <BindingDB Target Chain Sequence>
MEPGGARLRLQRTEGLGGERERQPCGDGNTETHRAPDLVQWTRHMEAVKAQLLEQAQGQLRELLDRAMREAIQSYPSQDKPLPPPPPGSLSRTQEPSLGKQKVFIIRKSLLDELMEVQHFRTIYHMFIAGLCVFIISTLAIDFIDEGRLLLEFDLLIFSFGQLPLALVTWVPMFLSTLLAPYQALRLWARGTWTQATGLGCALLAAHAVVLCALPVHVAVEHQLPPASRCVLVFEQVRFLMKSYSFLREAVPGTLRARRGEGIQAPSFSSYLYFLFCPTLIYRETYPRTPYVRWNYVAKNFAQALGCVLYACFILGRLCVPVFANMSREPFSTRALVLSILHATLPGIFMLLLIFFAFLHCWLNAFAEMLRFGDRMFYRDWWNSTSFSNYYRTWNVVVHDWLYSYVYQDGLRLLGARARGVAMLGVFLVSAVAHEYIFCFVLGFFYPVMLILFLVIGGMLNFMMHDQRTGPAWNVLMWTMLFLGQGIQVSLYCQEWYARRHCPLPQATFWGLVTPRSWSCHT

> <PDB ID(s) of Target Chain>


> <UniProt (SwissProt) Recommended Name of Target Chain>
Sterol O-acyltransferase 2

> <UniProt (SwissProt) Entry Name of Target Chain>
ACAT-2

> <UniProt (SwissProt) Primary ID of Target Chain>
O75908

> <UniProt (SwissProt) Secondary ID(s) of Target Chain>
F5H7W4 I6L9H9 Q4VB99 Q4VBA1 Q96TD4 Q9UNR2

> <UniProt (SwissProt) Alternative ID(s) of Target Chain>


> <UniProt (TrEMBL) Submitted Name of Target Chain>


> <UniProt (TrEMBL) Entry Name of Target Chain>


> <UniProt (TrEMBL) Primary ID of Target Chain>


> <UniProt (TrEMBL) Secondary ID(s) of Target Chain>


> <UniProt (TrEMBL) Alternative ID(s) of Target Chain>


$$$$

  Mrv0541 11241417102D          

 53 59  0  0  0  0            999 V2000
   21.5091   -5.7085    0.0000 C   0  0  0  0  0  0  0  0  0  0  0  0
   21.1007   -4.9959    0.0000 C   0  0  2  0  0  0  0  0  0  0  0  0
   20.6878   -5.7059    0.0000 C   0  0  0  0  0  0  0  0  0  0  0  0
   20.3924   -3.7626    0.0000 C   0  0  0  0  0  0  0  0  0  0  0  0
   20.3924   -4.5877    0.0000 C   0  0  2  0  0  0  0  0  0  0  0  0
   21.1043   -3.3460    0.0000 C   0  0  0  0  0  0  0  0  0  0  0  0
   21.8164   -3.7626    0.0000 C   0  0  1  0  0  0  0  0  0  0  0  0
   21.8175   -4.5877    0.0000 C   0  0  1  0  0  0  0  0  0  0  0  0
   22.5285   -4.9970    0.0000 C   0  0  0  0  0  0  0  0  0  0  0  0
   23.2431   -4.5858    0.0000 C   0  0  1  0  0  0  0  0  0  0  0  0
   22.5264   -3.3469    0.0000 C   0  0  2  0  0  0  0  0  0  0  0  0
   23.2416   -3.7655    0.0000 C   0  0  2  0  0  0  0  0  0  0  0  0
   23.9577   -3.3575    0.0000 O   0  0  0  0  0  0  0  0  0  0  0  0
   22.5272   -2.5205    0.0000 C   0  0  2  0  0  0  0  0  0  0  0  0
   23.2496   -2.1109    0.0000 C   0  0  0  0  0  0  0  0  0  0  0  0
   23.9677   -2.5332    0.0000 C   0  0  0  0  0  0  0  0  0  0  0  0
   24.6884   -2.1246    0.0000 C   0  0  0  0  0  0  0  0  0  0  0  0
   24.6972   -1.2923    0.0000 C   0  0  0  0  0  0  0  0  0  0  0  0
   23.9791   -0.8701    0.0000 O   0  0  0  0  0  0  0  0  0  0  0  0
   23.2521   -1.2803    0.0000 C   0  0  0  0  0  0  0  0  0  0  0  0
   25.4110   -0.8880    0.0000 C   0  0  0  0  0  0  0  0  0  0  0  0
   26.1220   -1.3088    0.0000 C   0  0  0  0  0  0  0  0  0  0  0  0
   26.8398   -0.9037    0.0000 N   0  0  0  0  0  0  0  0  0  0  0  0
   26.8479   -0.0777    0.0000 C   0  0  0  0  0  0  0  0  0  0  0  0
   26.1322    0.3421    0.0000 C   0  0  0  0  0  0  0  0  0  0  0  0
   25.4174   -0.0663    0.0000 C   0  0  0  0  0  0  0  0  0  0  0  0
   22.5404   -0.8631    0.0000 O   0  0  0  0  0  0  0  0  0  0  0  0
   23.9576   -4.9983    0.0000 O   0  0  0  0  0  0  0  0  0  0  0  0
   24.6721   -4.5856    0.0000 C   0  0  0  0  0  0  0  0  0  0  0  0
   25.3866   -4.9981    0.0000 C   0  0  0  0  0  0  0  0  0  0  0  0
   24.6720   -3.7606    0.0000 O   0  0  0  0  0  0  0  0  0  0  0  0
   19.6784   -5.0012    0.0000 O   0  0  0  0  0  0  0  0  0  0  0  0
   18.9633   -4.5897    0.0000 C   0  0  0  0  0  0  0  0  0  0  0  0
   18.2494   -5.0033    0.0000 C   0  0  0  0  0  0  0  0  0  0  0  0
   18.9622   -3.7647    0.0000 O   0  0  0  0  0  0  0  0  0  0  0  0
   21.0942   -6.4217    0.0000 O   0  0  0  0  0  0  0  0  0  0  0  0
   21.5044   -7.1375    0.0000 C   0  0  0  0  0  0  0  0  0  0  0  0
   21.0897   -7.8507    0.0000 C   0  0  0  0  0  0  0  0  0  0  0  0
   22.3295   -7.1401    0.0000 O   0  0  0  0  0  0  0  0  0  0  0  0
   21.8146   -2.1049    0.0000 O   0  0  0  0  0  0  0  0  0  0  0  0
   21.8090   -2.9376    0.0000 C   0  0  0  0  0  0  0  0  0  0  0  0
   23.2340   -2.9376    0.0000 C   0  0  0  0  0  0  0  0  0  0  0  0
   25.3814   -5.8221    0.0000 C   0  0  0  0  0  0  0  0  0  0  0  0
   26.0952   -6.2344    0.0000 C   0  0  0  0  0  0  0  0  0  0  0  0
   26.8106   -5.8218    0.0000 C   0  0  0  0  0  0  0  0  0  0  0  0
   26.8079   -4.9925    0.0000 C   0  0  0  0  0  0  0  0  0  0  0  0
   26.0936   -4.5838    0.0000 C   0  0  0  0  0  0  0  0  0  0  0  0
   27.5245   -6.2294    0.0000 C   0  0  0  0  0  0  0  0  0  0  0  0
   27.5243   -7.0555    0.0000 C   0  0  0  0  0  0  0  0  0  0  0  0
   28.2386   -7.4669    0.0000 C   0  0  0  0  0  0  0  0  0  0  0  0
   28.9535   -7.0533    0.0000 C   0  0  0  0  0  0  0  0  0  0  0  0
   28.9495   -6.2240    0.0000 C   0  0  0  0  0  0  0  0  0  0  0  0
   28.2347   -5.8163    0.0000 C   0  0  0  0  0  0  0  0  0  0  0  0
  2  1  1  6  0  0  0
  2  3  1  1  0  0  0
  5  4  1  0  0  0  0
  4  6  1  0  0  0  0
  2  5  1  0  0  0  0
  8  2  1  0  0  0  0
  7  6  1  0  0  0  0
  7  8  1  0  0  0  0
 11  7  1  1  0  0  0
  8  9  1  1  0  0  0
 10  9  1  0  0  0  0
 12 10  1  0  0  0  0
 11 12  1  0  0  0  0
 11 14  1  0  0  0  0
 12 13  1  0  0  0  0
 13 16  1  0  0  0  0
 14 15  1  0  0  0  0
 15 16  2  0  0  0  0
 15 20  1  0  0  0  0
 16 17  1  0  0  0  0
 17 18  2  0  0  0  0
 18 19  1  0  0  0  0
 19 20  1  0  0  0  0
 21 22  2  0  0  0  0
 22 23  1  0  0  0  0
 23 24  2  0  0  0  0
 24 25  1  0  0  0  0
 25 26  2  0  0  0  0
 26 21  1  0  0  0  0
 18 21  1  0  0  0  0
 20 27  2  0  0  0  0
 10 28  1  1  0  0  0
 28 29  1  0  0  0  0
 29 30  1  0  0  0  0
 29 31  2  0  0  0  0
  5 32  1  1  0  0  0
 32 33  1  0  0  0  0
 33 34  1  0  0  0  0
 33 35  2  0  0  0  0
  1 36  1  0  0  0  0
 36 37  1  0  0  0  0
 37 38  1  0  0  0  0
 37 39  2  0  0  0  0
 14 40  1  1  0  0  0
  7 41  1  1  0  0  0
 12 42  1  1  0  0  0
 30 43  2  0  0  0  0
 43 44  1  0  0  0  0
 44 45  2  0  0  0  0
 45 46  1  0  0  0  0
 46 47  2  0  0  0  0
 47 30  1  0  0  0  0
 48 49  2  0  0  0  0
 49 50  1  0  0  0  0
 50 51  2  0  0  0  0
 51 52  1  0  0  0  0
 52 53  2  0  0  0  0
 53 48  1  0  0  0  0
 45 48  1  0  0  0  0
M  END
> <From>
www.bindingDB.org

> <BindingDB Reactant_set_id>
51053302

> <Ligand InChI>
InChI=1S/C42H43NO10/c1-24(44)49-23-41(4)32-21-34(52-38(47)28-15-13-27(14-16-28)26-10-7-6-8-11-26)42(5)37(40(32,3)18-17-33(41)50-25(2)45)36(46)35-31(53-42)20-30(51-39(35)48)29-12-9-19-43-22-29/h6-16,19-20,22,32-34,36-37,46H,17-18,21,23H2,1-5H3/t32-,33+,34+,36+,37-,40+,41+,42-/m1/s1

> <Ligand InChI Key>
BMGZOXSRJBBUHW-WMXYXYAOSA-N

> <BindingDB MonomerID>
50429611

> <BindingDB Ligand Name>
CHEMBL2334221

> <Target Name>
Sterol O-acyltransferase 2

> <Target Source Organism According to Curator or DataSource>


> <Ki (nM)>


> <IC50 (nM)>
 9.5

> <Kd (nM)>


> <EC50 (nM)>


> <kon (M-1-s-1)>


> <koff (s-1)>


> <pH>


> <Temp (C)>


> <Curation/DataSource>
ChEMBL

> <Article DOI>
10.1016/j.bmcl.2012.12.099

> <BindingDB Entry DOI>
10.7270/Q2P270HW

> <PMID>
23369538

> <PubChem AID>


> <Patent Number>


> <Authors>
Ohtawa, M; Yamazaki, H; Ohte, S; Matsuda, D; Ohshiro, T; Rudel, LL; Omura, S; Tomoda, H; Nagamitsu, T

> <Institution>
Kitasato University

> <Link to Ligand in BindingDB>
http://www.bindingdb.org/bind/chemsearch/marvin/MolStructure.jsp?monomerid=50429611

> <Link to Target in BindingDB>
http://www.bindingdb.org/jsp/dbsearch/PrimarySearch_ki.jsp?energyterm=kJ/mole&tag=pol&polymerid=7773&target=Sterol+O-acyltransferase+2&column=ki&startPg=0&Increment=50&submit=Search

> <Link to Ligand-Target Pair in BindingDB>
http://www.bindingdb.org/jsp/dbsearch/PrimarySearch_ki.jsp?energyterm=kJ/mole&tag=r21&monomerid=50429611&enzyme=Sterol+O-acyltransferase+2&column=ki&startPg=0&Increment=50&submit=Search

> <Ligand HET ID in PDB>


> <PDB ID(s) for Ligand-Target Complex>


> <PubChem CID>
71560548

> <PubChem SID>
164158486

> <ChEBI ID of Ligand>


> <ChEMBL ID of Ligand>
CHEMBL2334221

> <DrugBank ID of Ligand>


> <IUPHAR_GRAC ID of Ligand>


> <KEGG ID of Ligand>


> <ZINC ID of Ligand>
ZINC95586931

> <Number of Protein Chains in Target (>1 implies a multichain complex)>
1

> <BindingDB Target Chain Sequence>
MEPGGARLRLQRTEGLGGERERQPCGDGNTETHRAPDLVQWTRHMEAVKAQLLEQAQGQLRELLDRAMREAIQSYPSQDKPLPPPPPGSLSRTQEPSLGKQKVFIIRKSLLDELMEVQHFRTIYHMFIAGLCVFIISTLAIDFIDEGRLLLEFDLLIFSFGQLPLALVTWVPMFLSTLLAPYQALRLWARGTWTQATGLGCALLAAHAVVLCALPVHVAVEHQLPPASRCVLVFEQVRFLMKSYSFLREAVPGTLRARRGEGIQAPSFSSYLYFLFCPTLIYRETYPRTPYVRWNYVAKNFAQALGCVLYACFILGRLCVPVFANMSREPFSTRALVLSILHATLPGIFMLLLIFFAFLHCWLNAFAEMLRFGDRMFYRDWWNSTSFSNYYRTWNVVVHDWLYSYVYQDGLRLLGARARGVAMLGVFLVSAVAHEYIFCFVLGFFYPVMLILFLVIGGMLNFMMHDQRTGPAWNVLMWTMLFLGQGIQVSLYCQEWYARRHCPLPQATFWGLVTPRSWSCHT

> <PDB ID(s) of Target Chain>


> <UniProt (SwissProt) Recommended Name of Target Chain>
Sterol O-acyltransferase 2

> <UniProt (SwissProt) Entry Name of Target Chain>
ACAT-2

> <UniProt (SwissProt) Primary ID of Target Chain>
O75908

> <UniProt (SwissProt) Secondary ID(s) of Target Chain>
F5H7W4 I6L9H9 Q4VB99 Q4VBA1 Q96TD4 Q9UNR2

> <UniProt (SwissProt) Alternative ID(s) of Target Chain>


> <UniProt (TrEMBL) Submitted Name of Target Chain>


> <UniProt (TrEMBL) Entry Name of Target Chain>


> <UniProt (TrEMBL) Primary ID of Target Chain>


> <UniProt (TrEMBL) Secondary ID(s) of Target Chain>


> <UniProt (TrEMBL) Alternative ID(s) of Target Chain>


$$$$

  Mrv0541 11241417312D          

 54 60  0  0  0  0            999 V2000
    6.2646   -9.1883    0.0000 C   0  0  0  0  0  0  0  0  0  0  0  0
    6.9886  -10.4221    0.0000 C   0  0  0  0  0  0  0  0  0  0  0  0
    6.2697  -10.0176    0.0000 C   0  0  0  0  0  0  0  0  0  0  0  0
    7.6967   -9.1841    0.0000 C   0  0  0  0  0  0  0  0  0  0  0  0
    7.6941  -10.0092    0.0000 C   0  0  0  0  0  0  0  0  0  0  0  0
    6.9825   -8.7717    0.0000 C   0  0  0  0  0  0  0  0  0  0  0  0
    9.1213   -9.1836    0.0000 O   0  0  0  0  0  0  0  0  0  0  0  0
   12.6880   -7.9460    0.0000 C   0  0  2  0  0  0  0  0  0  0  0  0
   15.5413   -3.8117    0.0000 C   0  0  0  0  0  0  0  0  0  0  0  0
   11.9732   -9.1793    0.0000 C   0  0  0  0  0  0  0  0  0  0  0  0
   14.8319   -4.2213    0.0000 C   0  0  0  0  0  0  0  0  0  0  0  0
   14.1229   -5.4566    0.0000 C   0  0  0  0  0  0  0  0  0  0  0  0
   16.2504  -10.0103    0.0000 C   0  0  0  0  0  0  0  0  0  0  0  0
   11.9636   -5.0503    0.0000 O   0  0  0  0  0  0  0  0  0  0  0  0
   14.1159   -7.9472    0.0000 O   0  0  0  0  0  0  0  0  0  0  0  0
   11.2585   -8.7722    0.0000 C   0  0  1  0  0  0  0  0  0  0  0  0
   16.2627   -5.0420    0.0000 N   0  0  0  0  0  0  0  0  0  0  0  0
   11.9711   -7.5294    0.0000 C   0  0  2  0  0  0  0  0  0  0  0  0
   12.6797   -5.4612    0.0000 C   0  0  0  0  0  0  0  0  0  0  0  0
   11.9672   -6.7030    0.0000 C   0  0  1  0  0  0  0  0  0  0  0  0
   17.6817  -10.8314    0.0000 N   0  0  0  0  0  0  0  0  0  0  0  0
   15.5351  -10.4240    0.0000 C   0  0  0  0  0  0  0  0  0  0  0  0
   10.5424   -9.1783    0.0000 C   0  0  2  0  0  0  0  0  0  0  0  0
   10.9527   -9.8903    0.0000 C   0  0  0  0  0  0  0  0  0  0  0  0
    8.4055   -7.9492    0.0000 O   0  0  0  0  0  0  0  0  0  0  0  0
   15.5502   -5.4575    0.0000 C   0  0  0  0  0  0  0  0  0  0  0  0
   13.4010   -5.0407    0.0000 O   0  0  0  0  0  0  0  0  0  0  0  0
    9.3020  -11.3169    0.0000 C   0  0  0  0  0  0  0  0  0  0  0  0
   14.1149   -8.7722    0.0000 C   0  0  0  0  0  0  0  0  0  0  0  0
   14.8283   -9.1835    0.0000 C   0  0  0  0  0  0  0  0  0  0  0  0
   16.9638  -10.4210    0.0000 C   0  0  0  0  0  0  0  0  0  0  0  0
   16.2488   -9.1811    0.0000 C   0  0  0  0  0  0  0  0  0  0  0  0
    9.8345   -7.9472    0.0000 C   0  0  0  0  0  0  0  0  0  0  0  0
   13.4088   -6.7031    0.0000 C   0  0  0  0  0  0  0  0  0  0  0  0
   13.4005   -9.1817    0.0000 O   0  0  0  0  0  0  0  0  0  0  0  0
    8.0648  -10.5949    0.0000 O   0  0  0  0  0  0  0  0  0  0  0  0
   13.4013   -7.5321    0.0000 O   0  0  0  0  0  0  0  0  0  0  0  0
    8.8898  -10.5975    0.0000 C   0  0  0  0  0  0  0  0  0  0  0  0
   10.1315   -9.8876    0.0000 C   0  0  0  0  0  0  0  0  0  0  0  0
    9.3065   -9.8850    0.0000 O   0  0  0  0  0  0  0  0  0  0  0  0
    8.4068   -8.7742    0.0000 C   0  0  0  0  0  0  0  0  0  0  0  0
   11.2488   -6.2935    0.0000 O   0  0  0  0  0  0  0  0  0  0  0  0
   16.2612   -4.2161    0.0000 C   0  0  0  0  0  0  0  0  0  0  0  0
   14.8351   -5.0429    0.0000 C   0  0  0  0  0  0  0  0  0  0  0  0
   10.5460   -7.5284    0.0000 C   0  0  0  0  0  0  0  0  0  0  0  0
   14.8225  -10.0086    0.0000 C   0  0  0  0  0  0  0  0  0  0  0  0
    9.8345   -8.7722    0.0000 C   0  0  2  0  0  0  0  0  0  0  0  0
   12.6871   -8.7704    0.0000 C   0  0  2  0  0  0  0  0  0  0  0  0
   12.6822   -7.1181    0.0000 C   0  0  0  0  0  0  0  0  0  0  0  0
   12.6867   -6.2915    0.0000 C   0  0  0  0  0  0  0  0  0  0  0  0
   11.2574   -7.9472    0.0000 C   0  0  1  0  0  0  0  0  0  0  0  0
   11.2501   -7.1222    0.0000 C   0  0  0  0  0  0  0  0  0  0  0  0
   14.1237   -6.2885    0.0000 C   0  0  0  0  0  0  0  0  0  0  0  0
   15.5358   -8.7735    0.0000 C   0  0  0  0  0  0  0  0  0  0  0  0
  2  5  2  0  0  0  0
  4  6  2  0  0  0  0
  1  3  2  0  0  0  0
  3  2  1  0  0  0  0
  5  4  1  0  0  0  0
  6  1  1  0  0  0  0
 34 53  1  0  0  0  0
 50 19  1  0  0  0  0
 16 10  1  1  0  0  0
 13 32  2  0  0  0  0
 22 13  1  0  0  0  0
 11 44  1  0  0  0  0
 39 40  1  0  0  0  0
 46 22  2  0  0  0  0
 23 39  1  6  0  0  0
 20 50  1  0  0  0  0
 12 44  1  0  0  0  0
 27 19  1  0  0  0  0
 44 26  2  0  0  0  0
  7 41  1  0  0  0  0
  9 11  2  0  0  0  0
 17 43  2  0  0  0  0
 30 46  1  0  0  0  0
 37 34  1  0  0  0  0
  8 48  1  0  0  0  0
 38 28  1  0  0  0  0
 19 14  2  0  0  0  0
 48 10  1  0  0  0  0
 13 31  1  0  0  0  0
 35 29  1  0  0  0  0
 20 42  1  1  0  0  0
 48 35  1  1  0  0  0
 32 54  1  0  0  0  0
 54 30  2  0  0  0  0
 12 27  1  0  0  0  0
 16 23  1  0  0  0  0
 18 20  1  1  0  0  0
 23 47  1  0  0  0  0
 51 45  1  0  0  0  0
 41 25  2  0  0  0  0
 26 17  1  0  0  0  0
 29 15  2  0  0  0  0
 18 51  1  0  0  0  0
  8 49  1  1  0  0  0
 38 36  2  0  0  0  0
 31 21  3  0  0  0  0
 43  9  1  0  0  0  0
 18  8  1  0  0  0  0
 40 38  1  0  0  0  0
 23 24  1  1  0  0  0
 29 30  1  0  0  0  0
 41  4  1  0  0  0  0
 50 34  2  0  0  0  0
  8 37  1  0  0  0  0
 51 52  1  1  0  0  0
 51 16  1  0  0  0  0
 53 12  2  0  0  0  0
 47 33  1  0  0  0  0
 33 45  1  0  0  0  0
 47  7  1  1  0  0  0
M  END
> <From>
www.bindingDB.org

> <BindingDB Reactant_set_id>
51061806

> <Ligand InChI>
InChI=1S/C42H40N2O10/c1-24(45)50-23-41(3)31-20-33(53-38(48)27-14-12-25(21-43)13-15-27)42(4)36(40(31,2)17-16-32(41)52-37(47)26-9-6-5-7-10-26)35(46)34-30(54-42)19-29(51-39(34)49)28-11-8-18-44-22-28/h5-15,18-19,22,31-33,35-36,46H,16-17,20,23H2,1-4H3/t31-,32+,33+,35+,36-,40+,41+,42-/m1/s1

> <Ligand InChI Key>
IONKULCWHLTXDF-XPZAPRPFSA-N

> <BindingDB MonomerID>
50433206

> <BindingDB Ligand Name>
CHEMBL2375707

> <Target Name>
Sterol O-acyltransferase 2

> <Target Source Organism According to Curator or DataSource>


> <Ki (nM)>


> <IC50 (nM)>
 9.6

> <Kd (nM)>


> <EC50 (nM)>


> <kon (M-1-s-1)>


> <koff (s-1)>


> <pH>


> <Temp (C)>


> <Curation/DataSource>
ChEMBL

> <Article DOI>
10.1016/j.bmcl.2013.02.088

> <BindingDB Entry DOI>
10.7270/Q20866P3

> <PMID>
23535327

> <PubChem AID>


> <Patent Number>


> <Authors>
Ohtawa, M; Yamazaki, H; Matsuda, D; Ohshiro, T; Rudel, LL; Omura, S; Tomoda, H; Nagamitsu, T

> <Institution>
Kitasato University

> <Link to Ligand in BindingDB>
http://www.bindingdb.org/bind/chemsearch/marvin/MolStructure.jsp?monomerid=50433206

> <Link to Target in BindingDB>
http://www.bindingdb.org/jsp/dbsearch/PrimarySearch_ki.jsp?energyterm=kJ/mole&tag=pol&polymerid=7773&target=Sterol+O-acyltransferase+2&column=ki&startPg=0&Increment=50&submit=Search

> <Link to Ligand-Target Pair in BindingDB>
http://www.bindingdb.org/jsp/dbsearch/PrimarySearch_ki.jsp?energyterm=kJ/mole&tag=r21&monomerid=50433206&enzyme=Sterol+O-acyltransferase+2&column=ki&startPg=0&Increment=50&submit=Search

> <Ligand HET ID in PDB>


> <PDB ID(s) for Ligand-Target Complex>


> <PubChem CID>
73348801

> <PubChem SID>
175445523

> <ChEBI ID of Ligand>


> <ChEMBL ID of Ligand>
CHEMBL2375707

> <DrugBank ID of Ligand>


> <IUPHAR_GRAC ID of Ligand>


> <KEGG ID of Ligand>


> <ZINC ID of Ligand>
ZINC96258623

> <Number of Protein Chains in Target (>1 implies a multichain complex)>
1

> <BindingDB Target Chain Sequence>
MEPGGARLRLQRTEGLGGERERQPCGDGNTETHRAPDLVQWTRHMEAVKAQLLEQAQGQLRELLDRAMREAIQSYPSQDKPLPPPPPGSLSRTQEPSLGKQKVFIIRKSLLDELMEVQHFRTIYHMFIAGLCVFIISTLAIDFIDEGRLLLEFDLLIFSFGQLPLALVTWVPMFLSTLLAPYQALRLWARGTWTQATGLGCALLAAHAVVLCALPVHVAVEHQLPPASRCVLVFEQVRFLMKSYSFLREAVPGTLRARRGEGIQAPSFSSYLYFLFCPTLIYRETYPRTPYVRWNYVAKNFAQALGCVLYACFILGRLCVPVFANMSREPFSTRALVLSILHATLPGIFMLLLIFFAFLHCWLNAFAEMLRFGDRMFYRDWWNSTSFSNYYRTWNVVVHDWLYSYVYQDGLRLLGARARGVAMLGVFLVSAVAHEYIFCFVLGFFYPVMLILFLVIGGMLNFMMHDQRTGPAWNVLMWTMLFLGQGIQVSLYCQEWYARRHCPLPQATFWGLVTPRSWSCHT

> <PDB ID(s) of Target Chain>


> <UniProt (SwissProt) Recommended Name of Target Chain>
Sterol O-acyltransferase 2

> <UniProt (SwissProt) Entry Name of Target Chain>
ACAT-2

> <UniProt (SwissProt) Primary ID of Target Chain>
O75908

> <UniProt (SwissProt) Secondary ID(s) of Target Chain>
F5H7W4 I6L9H9 Q4VB99 Q4VBA1 Q96TD4 Q9UNR2

> <UniProt (SwissProt) Alternative ID(s) of Target Chain>


> <UniProt (TrEMBL) Submitted Name of Target Chain>


> <UniProt (TrEMBL) Entry Name of Target Chain>


> <UniProt (TrEMBL) Primary ID of Target Chain>


> <UniProt (TrEMBL) Secondary ID(s) of Target Chain>


> <UniProt (TrEMBL) Alternative ID(s) of Target Chain>


$$$$

  Mrv0541 11241418062D          

 51 58  0  0  0  0            999 V2000
    5.2419  -19.6586    0.0000 C   0  0  0  0  0  0  0  0  0  0  0  0
    5.9546  -19.2415    0.0000 C   0  0  0  0  0  0  0  0  0  0  0  0
    6.6673  -19.6586    0.0000 C   0  0  1  0  0  0  0  0  0  0  0  0
    6.6683  -20.4842    0.0000 C   0  0  1  0  0  0  0  0  0  0  0  0
    7.3799  -20.8940    0.0000 C   0  0  0  0  0  0  0  0  0  0  0  0
    8.0952  -20.4824    0.0000 C   0  0  1  0  0  0  0  0  0  0  0  0
    7.3779  -19.2425    0.0000 C   0  0  2  0  0  0  0  0  0  0  0  0
    8.0898  -19.6590    0.0000 C   0  0  2  0  0  0  0  0  0  0  0  0
    8.8025  -19.2530    0.0000 O   0  0  0  0  0  0  0  0  0  0  0  0
    7.3787  -18.4201    0.0000 C   0  0  2  0  0  0  0  0  0  0  0  0
    5.9546  -20.8929    0.0000 C   0  0  1  0  0  0  0  0  0  0  0  0
    5.2419  -20.4842    0.0000 C   0  0  1  0  0  0  0  0  0  0  0  0
    4.5357  -20.8948    0.0000 O   0  0  0  0  0  0  0  0  0  0  0  0
    4.5358  -21.7157    0.0000 C   0  0  1  0  0  0  0  0  0  0  0  0
    5.2484  -22.1243    0.0000 O   0  0  0  0  0  0  0  0  0  0  0  0
    5.9610  -21.7122    0.0000 C   0  0  0  0  0  0  0  0  0  0  0  0
    8.0977  -18.0123    0.0000 C   0  0  0  0  0  0  0  0  0  0  0  0
    8.8080  -18.4305    0.0000 C   0  0  0  0  0  0  0  0  0  0  0  0
    9.5213  -18.0266    0.0000 C   0  0  0  0  0  0  0  0  0  0  0  0
    9.5305  -17.2029    0.0000 C   0  0  0  0  0  0  0  0  0  0  0  0
    8.8201  -16.7849    0.0000 O   0  0  0  0  0  0  0  0  0  0  0  0
    8.1006  -17.1903    0.0000 C   0  0  0  0  0  0  0  0  0  0  0  0
    7.3883  -16.7726    0.0000 O   0  0  0  0  0  0  0  0  0  0  0  0
    6.6654  -18.0040    0.0000 O   0  0  0  0  0  0  0  0  0  0  0  0
    8.0820  -18.8329    0.0000 C   0  0  0  0  0  0  0  0  0  0  0  0
    8.8113  -20.8936    0.0000 O   0  0  0  0  0  0  0  0  0  0  0  0
    6.6600  -18.8329    0.0000 C   0  0  0  0  0  0  0  0  0  0  0  0
    5.9467  -20.0672    0.0000 C   0  0  0  0  0  0  0  0  0  0  0  0
    9.5253  -20.4788    0.0000 C   0  0  0  0  0  0  0  0  0  0  0  0
   10.2414  -20.8899    0.0000 C   0  0  0  0  0  0  0  0  0  0  0  0
    9.5233  -19.6532    0.0000 O   0  0  0  0  0  0  0  0  0  0  0  0
   10.2414  -21.7156    0.0000 C   0  0  0  0  0  0  0  0  0  0  0  0
   10.9568  -22.1266    0.0000 C   0  0  0  0  0  0  0  0  0  0  0  0
   11.6717  -21.7118    0.0000 C   0  0  0  0  0  0  0  0  0  0  0  0
   11.6669  -20.8818    0.0000 C   0  0  0  0  0  0  0  0  0  0  0  0
   10.9512  -20.4746    0.0000 C   0  0  0  0  0  0  0  0  0  0  0  0
   10.2498  -16.7978    0.0000 C   0  0  0  0  0  0  0  0  0  0  0  0
   10.9611  -17.2193    0.0000 C   0  0  0  0  0  0  0  0  0  0  0  0
   11.6797  -16.8142    0.0000 N   0  0  0  0  0  0  0  0  0  0  0  0
   11.6882  -15.9875    0.0000 C   0  0  0  0  0  0  0  0  0  0  0  0
   10.9721  -15.5680    0.0000 C   0  0  0  0  0  0  0  0  0  0  0  0
   10.2565  -15.9755    0.0000 C   0  0  0  0  0  0  0  0  0  0  0  0
    3.8213  -22.1296    0.0000 C   0  0  0  0  0  0  0  0  0  0  0  0
    3.1088  -21.7148    0.0000 C   0  0  0  0  0  0  0  0  0  0  0  0
    2.3948  -22.1281    0.0000 C   0  0  0  0  0  0  0  0  0  0  0  0
    2.3956  -22.9548    0.0000 C   0  0  0  0  0  0  0  0  0  0  0  0
    3.1164  -23.3663    0.0000 C   0  0  0  0  0  0  0  0  0  0  0  0
    3.8273  -22.9507    0.0000 C   0  0  0  0  0  0  0  0  0  0  0  0
    1.6817  -23.3696    0.0000 C   0  0  0  0  0  0  0  0  0  0  0  0
   12.3874  -22.1177    0.0000 C   0  0  0  0  0  0  0  0  0  0  0  0
   13.1041  -22.5277    0.0000 N   0  0  0  0  0  0  0  0  0  0  0  0
 12  1  1  0  0  0  0
  1  2  1  0  0  0  0
  4 11  1  0  0  0  0
  3  2  1  0  0  0  0
  3  4  1  0  0  0  0
  7  3  1  1  0  0  0
  4  5  1  1  0  0  0
  6  5  1  0  0  0  0
  8  6  1  0  0  0  0
  7  8  1  0  0  0  0
  7 10  1  0  0  0  0
  8  9  1  0  0  0  0
  9 18  1  0  0  0  0
 10 17  1  0  0  0  0
 11 12  1  0  0  0  0
 11 16  1  0  0  0  0
 12 13  1  1  0  0  0
 14 13  1  0  0  0  0
 14 15  1  0  0  0  0
 15 16  1  0  0  0  0
 17 18  2  0  0  0  0
 17 22  1  0  0  0  0
 18 19  1  0  0  0  0
 19 20  2  0  0  0  0
 20 21  1  0  0  0  0
 21 22  1  0  0  0  0
 22 23  2  0  0  0  0
 10 24  1  1  0  0  0
  8 25  1  1  0  0  0
  6 26  1  1  0  0  0
  3 27  1  1  0  0  0
 11 28  1  1  0  0  0
 26 29  1  0  0  0  0
 29 30  1  0  0  0  0
 29 31  2  0  0  0  0
 30 32  2  0  0  0  0
 32 33  1  0  0  0  0
 33 34  2  0  0  0  0
 34 35  1  0  0  0  0
 35 36  2  0  0  0  0
 36 30  1  0  0  0  0
 37 38  2  0  0  0  0
 38 39  1  0  0  0  0
 39 40  2  0  0  0  0
 40 41  1  0  0  0  0
 41 42  2  0  0  0  0
 42 37  1  0  0  0  0
 20 37  1  0  0  0  0
 14 43  1  1  0  0  0
 43 44  2  0  0  0  0
 44 45  1  0  0  0  0
 45 46  2  0  0  0  0
 46 47  1  0  0  0  0
 47 48  2  0  0  0  0
 48 43  1  0  0  0  0
 46 49  1  0  0  0  0
 50 51  3  0  0  0  0
 34 50  1  0  0  0  0
M  END
> <From>
www.bindingDB.org

> <BindingDB Reactant_set_id>
51068466

> <Ligand InChI>
InChI=1S/C41H40N2O8/c1-23-7-11-26(12-8-23)38-47-22-40(3)30-19-32(49-36(45)25-13-9-24(20-42)10-14-25)41(4)35(39(30,2)16-15-31(40)50-38)34(44)33-29(51-41)18-28(48-37(33)46)27-6-5-17-43-21-27/h5-14,17-18,21,30-32,34-35,38,44H,15-16,19,22H2,1-4H3/t30-,31+,32+,34+,35-,38-,39+,40+,41-/m1/s1

> <Ligand InChI Key>
OMJBIVQFVWRCFH-KFSBURAESA-N

> <BindingDB MonomerID>
50436351

> <BindingDB Ligand Name>
CHEMBL2398808

> <Target Name>
Sterol O-acyltransferase 2

> <Target Source Organism According to Curator or DataSource>


> <Ki (nM)>


> <IC50 (nM)>
 9.7

> <Kd (nM)>


> <EC50 (nM)>


> <kon (M-1-s-1)>


> <koff (s-1)>


> <pH>


> <Temp (C)>


> <Curation/DataSource>
ChEMBL

> <Article DOI>
10.1016/j.bmcl.2013.04.075

> <BindingDB Entry DOI>
10.7270/Q2WD41Z9

> <PMID>
23711919

> <PubChem AID>


> <Patent Number>


> <Authors>
Ohtawa, M; Yamazaki, H; Ohte, S; Matsuda, D; Ohshiro, T; Rudel, LL; Omura, S; Tomoda, H; Nagamitsu, T

> <Institution>
Kitasato University

> <Link to Ligand in BindingDB>
http://www.bindingdb.org/bind/chemsearch/marvin/MolStructure.jsp?monomerid=50436351

> <Link to Target in BindingDB>
http://www.bindingdb.org/jsp/dbsearch/PrimarySearch_ki.jsp?energyterm=kJ/mole&tag=pol&polymerid=7773&target=Sterol+O-acyltransferase+2&column=ki&startPg=0&Increment=50&submit=Search

> <Link to Ligand-Target Pair in BindingDB>
http://www.bindingdb.org/jsp/dbsearch/PrimarySearch_ki.jsp?energyterm=kJ/mole&tag=r21&monomerid=50436351&enzyme=Sterol+O-acyltransferase+2&column=ki&startPg=0&Increment=50&submit=Search

> <Ligand HET ID in PDB>


> <PDB ID(s) for Ligand-Target Complex>


> <PubChem CID>
71682966

> <PubChem SID>
175448668

> <ChEBI ID of Ligand>


> <ChEMBL ID of Ligand>
CHEMBL2398808

> <DrugBank ID of Ligand>


> <IUPHAR_GRAC ID of Ligand>


> <KEGG ID of Ligand>


> <ZINC ID of Ligand>
ZINC96272262

> <Number of Protein Chains in Target (>1 implies a multichain complex)>
1

> <BindingDB Target Chain Sequence>
MEPGGARLRLQRTEGLGGERERQPCGDGNTETHRAPDLVQWTRHMEAVKAQLLEQAQGQLRELLDRAMREAIQSYPSQDKPLPPPPPGSLSRTQEPSLGKQKVFIIRKSLLDELMEVQHFRTIYHMFIAGLCVFIISTLAIDFIDEGRLLLEFDLLIFSFGQLPLALVTWVPMFLSTLLAPYQALRLWARGTWTQATGLGCALLAAHAVVLCALPVHVAVEHQLPPASRCVLVFEQVRFLMKSYSFLREAVPGTLRARRGEGIQAPSFSSYLYFLFCPTLIYRETYPRTPYVRWNYVAKNFAQALGCVLYACFILGRLCVPVFANMSREPFSTRALVLSILHATLPGIFMLLLIFFAFLHCWLNAFAEMLRFGDRMFYRDWWNSTSFSNYYRTWNVVVHDWLYSYVYQDGLRLLGARARGVAMLGVFLVSAVAHEYIFCFVLGFFYPVMLILFLVIGGMLNFMMHDQRTGPAWNVLMWTMLFLGQGIQVSLYCQEWYARRHCPLPQATFWGLVTPRSWSCHT

> <PDB ID(s) of Target Chain>


> <UniProt (SwissProt) Recommended Name of Target Chain>
Sterol O-acyltransferase 2

> <UniProt (SwissProt) Entry Name of Target Chain>
ACAT-2

> <UniProt (SwissProt) Primary ID of Target Chain>
O75908

> <UniProt (SwissProt) Secondary ID(s) of Target Chain>
F5H7W4 I6L9H9 Q4VB99 Q4VBA1 Q96TD4 Q9UNR2

> <UniProt (SwissProt) Alternative ID(s) of Target Chain>


> <UniProt (TrEMBL) Submitted Name of Target Chain>


> <UniProt (TrEMBL) Entry Name of Target Chain>


> <UniProt (TrEMBL) Primary ID of Target Chain>


> <UniProt (TrEMBL) Secondary ID(s) of Target Chain>


> <UniProt (TrEMBL) Alternative ID(s) of Target Chain>


$$$$

  Mrv0541 11241417102D          

 47 52  0  0  0  0            999 V2000
   12.0082   -5.1583    0.0000 C   0  0  0  0  0  0  0  0  0  0  0  0
   11.5999   -4.4458    0.0000 C   0  0  2  0  0  0  0  0  0  0  0  0
   11.1870   -5.1556    0.0000 C   0  0  0  0  0  0  0  0  0  0  0  0
   10.8916   -3.2125    0.0000 C   0  0  0  0  0  0  0  0  0  0  0  0
   10.8916   -4.0375    0.0000 C   0  0  2  0  0  0  0  0  0  0  0  0
   11.6036   -2.7958    0.0000 C   0  0  0  0  0  0  0  0  0  0  0  0
   12.3155   -3.2125    0.0000 C   0  0  1  0  0  0  0  0  0  0  0  0
   12.3166   -4.0375    0.0000 C   0  0  1  0  0  0  0  0  0  0  0  0
   13.0277   -4.4467    0.0000 C   0  0  0  0  0  0  0  0  0  0  0  0
   13.7422   -4.0357    0.0000 C   0  0  1  0  0  0  0  0  0  0  0  0
   13.0255   -2.7967    0.0000 C   0  0  2  0  0  0  0  0  0  0  0  0
   13.7408   -3.2153    0.0000 C   0  0  2  0  0  0  0  0  0  0  0  0
   14.4568   -2.8073    0.0000 O   0  0  0  0  0  0  0  0  0  0  0  0
   13.0263   -1.9704    0.0000 C   0  0  2  0  0  0  0  0  0  0  0  0
   13.7487   -1.5609    0.0000 C   0  0  0  0  0  0  0  0  0  0  0  0
   14.4668   -1.9830    0.0000 C   0  0  0  0  0  0  0  0  0  0  0  0
   15.1875   -1.5746    0.0000 C   0  0  0  0  0  0  0  0  0  0  0  0
   15.1963   -0.7422    0.0000 C   0  0  0  0  0  0  0  0  0  0  0  0
   14.4782   -0.3200    0.0000 O   0  0  0  0  0  0  0  0  0  0  0  0
   13.7513   -0.7302    0.0000 C   0  0  0  0  0  0  0  0  0  0  0  0
   15.9101   -0.3380    0.0000 C   0  0  0  0  0  0  0  0  0  0  0  0
   16.6209   -0.7588    0.0000 C   0  0  0  0  0  0  0  0  0  0  0  0
   17.3387   -0.3536    0.0000 N   0  0  0  0  0  0  0  0  0  0  0  0
   17.3468    0.4778    0.0000 C   0  0  0  0  0  0  0  0  0  0  0  0
   16.6312    0.8921    0.0000 C   0  0  0  0  0  0  0  0  0  0  0  0
   15.9164    0.4913    0.0000 C   0  0  0  0  0  0  0  0  0  0  0  0
   13.0395   -0.3131    0.0000 O   0  0  0  0  0  0  0  0  0  0  0  0
   14.4567   -4.4481    0.0000 O   0  0  0  0  0  0  0  0  0  0  0  0
   15.1711   -4.0354    0.0000 C   0  0  0  0  0  0  0  0  0  0  0  0
   15.8857   -4.4478    0.0000 C   0  0  0  0  0  0  0  0  0  0  0  0
   15.1710   -3.2105    0.0000 O   0  0  0  0  0  0  0  0  0  0  0  0
   10.1777   -4.4510    0.0000 O   0  0  0  0  0  0  0  0  0  0  0  0
    9.4627   -4.0395    0.0000 C   0  0  0  0  0  0  0  0  0  0  0  0
    8.7487   -4.4531    0.0000 C   0  0  0  0  0  0  0  0  0  0  0  0
    9.4614   -3.2145    0.0000 O   0  0  0  0  0  0  0  0  0  0  0  0
   11.5934   -5.8714    0.0000 O   0  0  0  0  0  0  0  0  0  0  0  0
   12.0037   -6.5872    0.0000 C   0  0  0  0  0  0  0  0  0  0  0  0
   11.5889   -7.3003    0.0000 C   0  0  0  0  0  0  0  0  0  0  0  0
   12.8286   -6.5898    0.0000 O   0  0  0  0  0  0  0  0  0  0  0  0
   12.3137   -1.5548    0.0000 O   0  0  0  0  0  0  0  0  0  0  0  0
   12.3082   -2.3875    0.0000 C   0  0  0  0  0  0  0  0  0  0  0  0
   13.7331   -2.3875    0.0000 C   0  0  0  0  0  0  0  0  0  0  0  0
   15.8805   -5.2718    0.0000 C   0  0  0  0  0  0  0  0  0  0  0  0
   16.5942   -5.6841    0.0000 C   0  0  0  0  0  0  0  0  0  0  0  0
   17.3095   -5.2715    0.0000 C   0  0  0  0  0  0  0  0  0  0  0  0
   17.3068   -4.4423    0.0000 C   0  0  0  0  0  0  0  0  0  0  0  0
   16.5926   -4.0336    0.0000 C   0  0  0  0  0  0  0  0  0  0  0  0
  2  1  1  6  0  0  0
  2  3  1  1  0  0  0
  5  4  1  0  0  0  0
  4  6  1  0  0  0  0
  2  5  1  0  0  0  0
  8  2  1  0  0  0  0
  7  6  1  0  0  0  0
  7  8  1  0  0  0  0
 11  7  1  1  0  0  0
  8  9  1  1  0  0  0
 10  9  1  0  0  0  0
 12 10  1  0  0  0  0
 11 12  1  0  0  0  0
 11 14  1  0  0  0  0
 12 13  1  0  0  0  0
 13 16  1  0  0  0  0
 14 15  1  0  0  0  0
 15 16  2  0  0  0  0
 15 20  1  0  0  0  0
 16 17  1  0  0  0  0
 17 18  2  0  0  0  0
 18 19  1  0  0  0  0
 19 20  1  0  0  0  0
 21 22  2  0  0  0  0
 22 23  1  0  0  0  0
 23 24  2  0  0  0  0
 24 25  1  0  0  0  0
 25 26  2  0  0  0  0
 26 21  1  0  0  0  0
 18 21  1  0  0  0  0
 20 27  2  0  0  0  0
 10 28  1  1  0  0  0
 28 29  1  0  0  0  0
 29 30  1  0  0  0  0
 29 31  2  0  0  0  0
  5 32  1  1  0  0  0
 32 33  1  0  0  0  0
 33 34  1  0  0  0  0
 33 35  2  0  0  0  0
  1 36  1  0  0  0  0
 36 37  1  0  0  0  0
 37 38  1  0  0  0  0
 37 39  2  0  0  0  0
 14 40  1  1  0  0  0
  7 41  1  1  0  0  0
 12 42  1  1  0  0  0
 30 43  2  0  0  0  0
 43 44  1  0  0  0  0
 44 45  2  0  0  0  0
 45 46  1  0  0  0  0
 46 47  2  0  0  0  0
 47 30  1  0  0  0  0
M  END
> <From>
www.bindingDB.org

> <BindingDB Reactant_set_id>
51053303

> <Ligand InChI>
InChI=1S/C36H39NO10/c1-20(38)43-19-35(4)26-17-28(46-32(41)22-10-7-6-8-11-22)36(5)31(34(26,3)14-13-27(35)44-21(2)39)30(40)29-25(47-36)16-24(45-33(29)42)23-12-9-15-37-18-23/h6-12,15-16,18,26-28,30-31,40H,13-14,17,19H2,1-5H3/t26-,27+,28+,30+,31-,34+,35+,36-/m1/s1

> <Ligand InChI Key>
KMBCTDWYKSFUMX-HRSZXCBJSA-N

> <BindingDB MonomerID>
50429612

> <BindingDB Ligand Name>
CHEMBL2334220

> <Target Name>
Sterol O-acyltransferase 2

> <Target Source Organism According to Curator or DataSource>


> <Ki (nM)>


> <IC50 (nM)>
 10.0

> <Kd (nM)>


> <EC50 (nM)>


> <kon (M-1-s-1)>


> <koff (s-1)>


> <pH>


> <Temp (C)>


> <Curation/DataSource>
ChEMBL

> <Article DOI>
10.1016/j.bmcl.2012.12.099

> <BindingDB Entry DOI>
10.7270/Q2P270HW

> <PMID>
23369538

> <PubChem AID>


> <Patent Number>


> <Authors>
Ohtawa, M; Yamazaki, H; Ohte, S; Matsuda, D; Ohshiro, T; Rudel, LL; Omura, S; Tomoda, H; Nagamitsu, T

> <Institution>
Kitasato University

> <Link to Ligand in BindingDB>
http://www.bindingdb.org/bind/chemsearch/marvin/MolStructure.jsp?monomerid=50429612

> <Link to Target in BindingDB>
http://www.bindingdb.org/jsp/dbsearch/PrimarySearch_ki.jsp?energyterm=kJ/mole&tag=pol&polymerid=7773&target=Sterol+O-acyltransferase+2&column=ki&startPg=0&Increment=50&submit=Search

> <Link to Ligand-Target Pair in BindingDB>
http://www.bindingdb.org/jsp/dbsearch/PrimarySearch_ki.jsp?energyterm=kJ/mole&tag=r21&monomerid=50429612&enzyme=Sterol+O-acyltransferase+2&column=ki&startPg=0&Increment=50&submit=Search

> <Ligand HET ID in PDB>


> <PDB ID(s) for Ligand-Target Complex>


> <PubChem CID>
10484322

> <PubChem SID>
164158487

> <ChEBI ID of Ligand>


> <ChEMBL ID of Ligand>
CHEMBL2334220

> <DrugBank ID of Ligand>


> <IUPHAR_GRAC ID of Ligand>


> <KEGG ID of Ligand>


> <ZINC ID of Ligand>
ZINC03966617

> <Number of Protein Chains in Target (>1 implies a multichain complex)>
1

> <BindingDB Target Chain Sequence>
MEPGGARLRLQRTEGLGGERERQPCGDGNTETHRAPDLVQWTRHMEAVKAQLLEQAQGQLRELLDRAMREAIQSYPSQDKPLPPPPPGSLSRTQEPSLGKQKVFIIRKSLLDELMEVQHFRTIYHMFIAGLCVFIISTLAIDFIDEGRLLLEFDLLIFSFGQLPLALVTWVPMFLSTLLAPYQALRLWARGTWTQATGLGCALLAAHAVVLCALPVHVAVEHQLPPASRCVLVFEQVRFLMKSYSFLREAVPGTLRARRGEGIQAPSFSSYLYFLFCPTLIYRETYPRTPYVRWNYVAKNFAQALGCVLYACFILGRLCVPVFANMSREPFSTRALVLSILHATLPGIFMLLLIFFAFLHCWLNAFAEMLRFGDRMFYRDWWNSTSFSNYYRTWNVVVHDWLYSYVYQDGLRLLGARARGVAMLGVFLVSAVAHEYIFCFVLGFFYPVMLILFLVIGGMLNFMMHDQRTGPAWNVLMWTMLFLGQGIQVSLYCQEWYARRHCPLPQATFWGLVTPRSWSCHT

> <PDB ID(s) of Target Chain>


> <UniProt (SwissProt) Recommended Name of Target Chain>
Sterol O-acyltransferase 2

> <UniProt (SwissProt) Entry Name of Target Chain>
ACAT-2

> <UniProt (SwissProt) Primary ID of Target Chain>
O75908

> <UniProt (SwissProt) Secondary ID(s) of Target Chain>
F5H7W4 I6L9H9 Q4VB99 Q4VBA1 Q96TD4 Q9UNR2

> <UniProt (SwissProt) Alternative ID(s) of Target Chain>


> <UniProt (TrEMBL) Submitted Name of Target Chain>


> <UniProt (TrEMBL) Entry Name of Target Chain>


> <UniProt (TrEMBL) Primary ID of Target Chain>


> <UniProt (TrEMBL) Secondary ID(s) of Target Chain>


> <UniProt (TrEMBL) Alternative ID(s) of Target Chain>


$$$$

  Mrv0541 11241418062D          

 47 53  0  0  0  0            999 V2000
   16.2804   -3.2204    0.0000 C   0  0  0  0  0  0  0  0  0  0  0  0
   11.9783   -4.0067    0.0000 O   0  0  0  0  0  0  0  0  0  0  0  0
   14.1361   -2.7870    0.0000 O   0  0  0  0  0  0  0  0  0  0  0  0
   11.9813   -6.4926    0.0000 C   0  0  2  0  0  0  0  0  0  0  0  0
   14.8476   -3.2039    0.0000 C   0  0  0  0  0  0  0  0  0  0  0  0
   12.7024   -2.7746    0.0000 O   0  0  0  0  0  0  0  0  0  0  0  0
   12.6940   -6.9053    0.0000 C   0  0  0  0  0  0  0  0  0  0  0  0
   13.4157   -3.1913    0.0000 C   0  0  0  0  0  0  0  0  0  0  0  0
   12.6927   -4.4258    0.0000 C   0  0  1  0  0  0  0  0  0  0  0  0
   14.1186   -5.2608    0.0000 O   0  0  0  0  0  0  0  0  0  0  0  0
   13.4127   -4.0152    0.0000 C   0  0  0  0  0  0  0  0  0  0  0  0
   11.9802   -5.6650    0.0000 C   0  0  2  0  0  0  0  0  0  0  0  0
   17.0001   -2.8164    0.0000 N   0  0  0  0  0  0  0  0  0  0  0  0
   14.8405   -5.6596    0.0000 O   0  0  0  0  0  0  0  0  0  0  0  0
   11.2624   -5.2491    0.0000 C   0  0  0  0  0  0  0  0  0  0  0  0
   15.5682   -2.8000    0.0000 C   0  0  0  0  0  0  0  0  0  0  0  0
   10.5487   -5.6650    0.0000 C   0  0  0  0  0  0  0  0  0  0  0  0
   14.1240   -4.4362    0.0000 C   0  0  0  0  0  0  0  0  0  0  0  0
   14.1275   -6.9049    0.0000 O   0  0  0  0  0  0  0  0  0  0  0  0
   15.5749   -1.9759    0.0000 C   0  0  0  0  0  0  0  0  0  0  0  0
   13.4101   -6.4908    0.0000 C   0  0  2  0  0  0  0  0  0  0  0  0
   12.6919   -5.2502    0.0000 C   0  0  2  0  0  0  0  0  0  0  0  0
   17.0087   -1.9881    0.0000 C   0  0  0  0  0  0  0  0  0  0  0  0
   13.4048   -5.6655    0.0000 C   0  0  2  0  0  0  0  0  0  0  0  0
   11.9729   -4.8374    0.0000 C   0  0  0  0  0  0  0  0  0  0  0  0
   13.3969   -4.8374    0.0000 C   0  0  0  0  0  0  0  0  0  0  0  0
   14.8425   -6.4871    0.0000 C   0  0  0  0  0  0  0  0  0  0  0  0
   14.8384   -4.0294    0.0000 C   0  0  0  0  0  0  0  0  0  0  0  0
   16.2915   -1.5647    0.0000 C   0  0  0  0  0  0  0  0  0  0  0  0
   15.5597   -6.9012    0.0000 C   0  0  0  0  0  0  0  0  0  0  0  0
   15.5596   -7.7250    0.0000 C   0  0  0  0  0  0  0  0  0  0  0  0
   16.2730   -8.1369    0.0000 C   0  0  0  0  0  0  0  0  0  0  0  0
   16.2730   -8.9607    0.0000 C   0  0  0  0  0  0  0  0  0  0  0  0
   11.2608   -6.9050    0.0000 C   0  0  1  0  0  0  0  0  0  0  0  0
   10.5487   -6.4926    0.0000 C   0  0  1  0  0  0  0  0  0  0  0  0
    9.8394   -6.9008    0.0000 O   0  0  0  0  0  0  0  0  0  0  0  0
    9.8361   -7.7231    0.0000 C   0  0  1  0  0  0  0  0  0  0  0  0
   10.5482   -8.1355    0.0000 O   0  0  0  0  0  0  0  0  0  0  0  0
   11.2636   -7.7256    0.0000 C   0  0  0  0  0  0  0  0  0  0  0  0
   11.9696   -7.3141    0.0000 C   0  0  0  0  0  0  0  0  0  0  0  0
    9.1215   -8.1330    0.0000 C   0  0  0  0  0  0  0  0  0  0  0  0
    8.4136   -7.7164    0.0000 C   0  0  0  0  0  0  0  0  0  0  0  0
    7.6995   -8.1257    0.0000 C   0  0  0  0  0  0  0  0  0  0  0  0
    7.6969   -8.9504    0.0000 C   0  0  0  0  0  0  0  0  0  0  0  0
    8.4141   -9.3640    0.0000 C   0  0  0  0  0  0  0  0  0  0  0  0
    9.1253   -8.9524    0.0000 C   0  0  0  0  0  0  0  0  0  0  0  0
    9.8398   -9.3623    0.0000 C   0  0  0  0  0  0  0  0  0  0  0  0
 35 17  1  0  0  0  0
 19 27  1  0  0  0  0
 22  9  1  1  0  0  0
 20 16  2  0  0  0  0
  4 34  1  0  0  0  0
  4  7  1  1  0  0  0
 12  4  1  0  0  0  0
 18 28  1  0  0  0  0
 11  8  1  0  0  0  0
 27 14  2  0  0  0  0
 24 21  1  0  0  0  0
 22 12  1  0  0  0  0
 13 23  1  0  0  0  0
 12 15  1  0  0  0  0
  5 16  1  0  0  0  0
  1 13  2  0  0  0  0
 16  1  1  0  0  0  0
  8  6  2  0  0  0  0
 24 10  1  0  0  0  0
 22 24  1  0  0  0  0
 21 19  1  1  0  0  0
  9 11  1  0  0  0  0
 11 18  2  0  0  0  0
 23 29  2  0  0  0  0
 10 18  1  0  0  0  0
 27 30  1  0  0  0  0
  9  2  1  1  0  0  0
 29 20  1  0  0  0  0
 28  5  2  0  0  0  0
  3  8  1  0  0  0  0
  5  3  1  0  0  0  0
 17 15  1  0  0  0  0
 12 25  1  1  0  0  0
 21  7  1  0  0  0  0
 24 26  1  1  0  0  0
 30 31  1  0  0  0  0
 31 32  1  0  0  0  0
 32 33  1  0  0  0  0
 34 35  1  0  0  0  0
 34 39  1  0  0  0  0
 35 36  1  1  0  0  0
 37 36  1  0  0  0  0
 37 38  1  0  0  0  0
 38 39  1  0  0  0  0
 34 40  1  1  0  0  0
 37 41  1  1  0  0  0
 41 42  2  0  0  0  0
 42 43  1  0  0  0  0
 43 44  2  0  0  0  0
 44 45  1  0  0  0  0
 45 46  2  0  0  0  0
 46 41  1  0  0  0  0
 46 47  1  0  0  0  0
M  END
> <From>
www.bindingDB.org

> <BindingDB Reactant_set_id>
51068469

> <Ligand InChI>
InChI=1S/C38H45NO8/c1-6-7-14-30(40)45-29-19-27-36(3,16-15-28-37(27,4)21-43-35(46-28)24-13-9-8-11-22(24)2)33-32(41)31-26(47-38(29,33)5)18-25(44-34(31)42)23-12-10-17-39-20-23/h8-13,17-18,20,27-29,32-33,35,41H,6-7,14-16,19,21H2,1-5H3/t27-,28+,29+,32+,33-,35-,36+,37+,38-/m1/s1

> <Ligand InChI Key>
FBZJVGOWLSYPGL-QATYFIILSA-N

> <BindingDB MonomerID>
50436354

> <BindingDB Ligand Name>
CHEMBL2398796

> <Target Name>
Sterol O-acyltransferase 2

> <Target Source Organism According to Curator or DataSource>


> <Ki (nM)>


> <IC50 (nM)>
 10.0

> <Kd (nM)>


> <EC50 (nM)>


> <kon (M-1-s-1)>


> <koff (s-1)>


> <pH>


> <Temp (C)>


> <Curation/DataSource>
ChEMBL

> <Article DOI>
10.1016/j.bmcl.2013.04.075

> <BindingDB Entry DOI>
10.7270/Q2WD41Z9

> <PMID>
23711919

> <PubChem AID>


> <Patent Number>


> <Authors>
Ohtawa, M; Yamazaki, H; Ohte, S; Matsuda, D; Ohshiro, T; Rudel, LL; Omura, S; Tomoda, H; Nagamitsu, T

> <Institution>
Kitasato University

> <Link to Ligand in BindingDB>
http://www.bindingdb.org/bind/chemsearch/marvin/MolStructure.jsp?monomerid=50436354

> <Link to Target in BindingDB>
http://www.bindingdb.org/jsp/dbsearch/PrimarySearch_ki.jsp?energyterm=kJ/mole&tag=pol&polymerid=7773&target=Sterol+O-acyltransferase+2&column=ki&startPg=0&Increment=50&submit=Search

> <Link to Ligand-Target Pair in BindingDB>
http://www.bindingdb.org/jsp/dbsearch/PrimarySearch_ki.jsp?energyterm=kJ/mole&tag=r21&monomerid=50436354&enzyme=Sterol+O-acyltransferase+2&column=ki&startPg=0&Increment=50&submit=Search

> <Ligand HET ID in PDB>


> <PDB ID(s) for Ligand-Target Complex>


> <PubChem CID>
10508383

> <PubChem SID>
175448671

> <ChEBI ID of Ligand>


> <ChEMBL ID of Ligand>
CHEMBL2398796

> <DrugBank ID of Ligand>


> <IUPHAR_GRAC ID of Ligand>


> <KEGG ID of Ligand>


> <ZINC ID of Ligand>
ZINC96272264

> <Number of Protein Chains in Target (>1 implies a multichain complex)>
1

> <BindingDB Target Chain Sequence>
MEPGGARLRLQRTEGLGGERERQPCGDGNTETHRAPDLVQWTRHMEAVKAQLLEQAQGQLRELLDRAMREAIQSYPSQDKPLPPPPPGSLSRTQEPSLGKQKVFIIRKSLLDELMEVQHFRTIYHMFIAGLCVFIISTLAIDFIDEGRLLLEFDLLIFSFGQLPLALVTWVPMFLSTLLAPYQALRLWARGTWTQATGLGCALLAAHAVVLCALPVHVAVEHQLPPASRCVLVFEQVRFLMKSYSFLREAVPGTLRARRGEGIQAPSFSSYLYFLFCPTLIYRETYPRTPYVRWNYVAKNFAQALGCVLYACFILGRLCVPVFANMSREPFSTRALVLSILHATLPGIFMLLLIFFAFLHCWLNAFAEMLRFGDRMFYRDWWNSTSFSNYYRTWNVVVHDWLYSYVYQDGLRLLGARARGVAMLGVFLVSAVAHEYIFCFVLGFFYPVMLILFLVIGGMLNFMMHDQRTGPAWNVLMWTMLFLGQGIQVSLYCQEWYARRHCPLPQATFWGLVTPRSWSCHT

> <PDB ID(s) of Target Chain>


> <UniProt (SwissProt) Recommended Name of Target Chain>
Sterol O-acyltransferase 2

> <UniProt (SwissProt) Entry Name of Target Chain>
ACAT-2

> <UniProt (SwissProt) Primary ID of Target Chain>
O75908

> <UniProt (SwissProt) Secondary ID(s) of Target Chain>
F5H7W4 I6L9H9 Q4VB99 Q4VBA1 Q96TD4 Q9UNR2

> <UniProt (SwissProt) Alternative ID(s) of Target Chain>


> <UniProt (TrEMBL) Submitted Name of Target Chain>


> <UniProt (TrEMBL) Entry Name of Target Chain>


> <UniProt (TrEMBL) Primary ID of Target Chain>


> <UniProt (TrEMBL) Secondary ID(s) of Target Chain>


> <UniProt (TrEMBL) Alternative ID(s) of Target Chain>


$$$$

  Mrv0541 11221423482D          

 42 45  0  0  0  0            999 V2000
    2.6780    0.1624    0.0000 C   0  0  0  0  0  0  0  0  0  0  0  0
    2.2782   -0.5539    0.0000 C   0  0  0  0  0  0  0  0  0  0  0  0
    3.4901    0.0083    0.0000 N   0  0  0  0  0  0  0  0  0  0  0  0
    3.5901   -0.8121    0.0000 C   0  0  0  0  0  0  0  0  0  0  0  0
    2.8404   -1.1620    0.0000 N   0  0  0  0  0  0  0  0  0  0  0  0
    8.6252   -1.8908    0.0000 C   0  0  0  0  0  0  0  0  0  0  0  0
    7.9256   -2.3281    0.0000 N   0  0  0  0  0  0  0  0  0  0  0  0
    7.9506   -3.1528    0.0000 C   0  0  0  0  0  0  0  0  0  0  0  0
    7.2509   -3.5859    0.0000 C   0  0  0  0  0  0  0  0  0  0  0  0
    8.6003   -1.0745    0.0000 N   0  0  0  0  0  0  0  0  0  0  0  0
    7.2759   -4.4022    0.0000 C   0  0  0  0  0  0  0  0  0  0  0  0
    2.3281    0.9079    0.0000 C   0  0  0  0  0  0  0  0  0  0  0  0
    1.4660   -0.6622    0.0000 C   0  0  0  0  0  0  0  0  0  0  0  0
    9.3499   -2.2865    0.0000 O   0  0  0  0  0  0  0  0  0  0  0  0
    4.3147   -1.2036    0.0000 S   0  0  0  0  0  0  0  0  0  0  0  0
    8.6752   -3.5401    0.0000 C   0  0  0  0  0  0  0  0  0  0  0  0
    8.0005   -4.8020    0.0000 C   0  0  0  0  0  0  0  0  0  0  0  0
    6.5262   -3.1902    0.0000 F   0  0  0  0  0  0  0  0  0  0  0  0
    8.7002   -4.3647    0.0000 C   0  0  0  0  0  0  0  0  0  0  0  0
    8.0255   -5.6266    0.0000 F   0  0  0  0  0  0  0  0  0  0  0  0
    9.2999   -0.6372    0.0000 C   0  0  0  0  0  0  0  0  0  0  0  0
    7.8756   -0.6789    0.0000 C   0  0  0  0  0  0  0  0  0  0  0  0
    0.9663    0.0000    0.0000 C   0  0  0  0  0  0  0  0  0  0  0  0
    1.1495   -1.4160    0.0000 C   0  0  0  0  0  0  0  0  0  0  0  0
    2.8029    1.5826    0.0000 C   0  0  0  0  0  0  0  0  0  0  0  0
    1.5160    0.9746    0.0000 C   0  0  0  0  0  0  0  0  0  0  0  0
    5.0144   -0.7746    0.0000 C   0  0  0  0  0  0  0  0  0  0  0  0
   10.0246   -1.0287    0.0000 C   0  0  0  0  0  0  0  0  0  0  0  0
    7.1717   -1.1162    0.0000 C   0  0  0  0  0  0  0  0  0  0  0  0
    5.7474   -1.1620    0.0000 C   0  0  0  0  0  0  0  0  0  0  0  0
   12.8816   -0.9371    0.0000 C   0  0  0  0  0  0  0  0  0  0  0  0
   12.1569   -0.5497    0.0000 C   0  0  0  0  0  0  0  0  0  0  0  0
    6.4470   -0.7289    0.0000 C   0  0  0  0  0  0  0  0  0  0  0  0
   10.7243   -0.5914    0.0000 C   0  0  0  0  0  0  0  0  0  0  0  0
   11.4572   -0.9788    0.0000 C   0  0  0  0  0  0  0  0  0  0  0  0
   13.5855   -0.5040    0.0000 C   0  0  0  0  0  0  0  0  0  0  0  0
    0.3290   -1.5243    0.0000 C   0  0  0  0  0  0  0  0  0  0  0  0
    2.4531    2.3322    0.0000 C   0  0  0  0  0  0  0  0  0  0  0  0
    1.1620    1.7200    0.0000 C   0  0  0  0  0  0  0  0  0  0  0  0
    0.1541   -0.1042    0.0000 C   0  0  0  0  0  0  0  0  0  0  0  0
   -0.1707   -0.8621    0.0000 C   0  0  0  0  0  0  0  0  0  0  0  0
    1.6367    2.4072    0.0000 C   0  0  0  0  0  0  0  0  0  0  0  0
  2  1  2  0  0  0  0
  3  1  1  0  0  0  0
  4  3  2  0  0  0  0
  5  2  1  0  0  0  0
  6 10  1  0  0  0  0
  7  6  1  0  0  0  0
  8  7  1  0  0  0  0
  9  8  2  0  0  0  0
 10 22  1  0  0  0  0
 11  9  1  0  0  0  0
 12  1  1  0  0  0  0
 13  2  1  0  0  0  0
 14  6  2  0  0  0  0
 15  4  1  0  0  0  0
 16  8  1  0  0  0  0
 17 19  1  0  0  0  0
 18  9  1  0  0  0  0
 19 16  2  0  0  0  0
 20 17  1  0  0  0  0
 21 10  1  0  0  0  0
 22 29  1  0  0  0  0
 23 13  2  0  0  0  0
 24 13  1  0  0  0  0
 25 12  2  0  0  0  0
 26 12  1  0  0  0  0
 27 15  1  0  0  0  0
 28 21  1  0  0  0  0
 29 33  1  0  0  0  0
 30 27  1  0  0  0  0
 31 32  1  0  0  0  0
 32 35  1  0  0  0  0
 33 30  1  0  0  0  0
 34 28  1  0  0  0  0
 35 34  1  0  0  0  0
 36 31  1  0  0  0  0
 37 24  2  0  0  0  0
 38 25  1  0  0  0  0
 39 26  2  0  0  0  0
 40 23  1  0  0  0  0
 41 37  1  0  0  0  0
 42 39  1  0  0  0  0
  4  5  1  0  0  0  0
 42 38  2  0  0  0  0
 41 40  2  0  0  0  0
 17 11  2  0  0  0  0
M  END
> <From>
www.bindingDB.org

> <BindingDB Reactant_set_id>
51128151

> <Ligand InChI>
InChI=1S/C34H40F2N4OS/c1-2-3-4-5-13-22-40(34(41)37-30-21-20-28(35)25-29(30)36)23-14-8-15-24-42-33-38-31(26-16-9-6-10-17-26)32(39-33)27-18-11-7-12-19-27/h6-7,9-12,16-21,25H,2-5,8,13-15,22-24H2,1H3,(H,37,41)(H,38,39)

> <Ligand InChI Key>
TVXOXGBTADZYCZ-UHFFFAOYSA-N

> <BindingDB MonomerID>
50033969

> <BindingDB Ligand Name>
3-(2,4-Difluoro-phenyl)-1-[5-(4,5-diphenyl-1H-imidazol-2-ylsulfanyl)-pentyl]-1-heptyl-urea::CHEMBL274185::Lecimibide

> <Target Name>
Sterol O-acyltransferase 2

> <Target Source Organism According to Curator or DataSource>
Rattus norvegicus

> <Ki (nM)>


> <IC50 (nM)>
 10.0

> <Kd (nM)>


> <EC50 (nM)>


> <kon (M-1-s-1)>


> <koff (s-1)>


> <pH>


> <Temp (C)>


> <Curation/DataSource>
ChEMBL

> <Article DOI>
10.1016/j.bmc.2018.06.024

> <BindingDB Entry DOI>
10.7270/Q22F7R3T

> <PMID>
29945757

> <PubChem AID>


> <Patent Number>


> <Authors>
Shibuya, K; Kawamine, K; Miura, T; Ozaki, C; Edano, T; Mizuno, K; Yoshinaka, Y; Tsunenari, Y

> <Institution>
Kowa Co., Ltd.

> <Link to Ligand in BindingDB>
http://www.bindingdb.org/bind/chemsearch/marvin/MolStructure.jsp?monomerid=50033969

> <Link to Target in BindingDB>
http://www.bindingdb.org/jsp/dbsearch/PrimarySearch_ki.jsp?energyterm=kJ/mole&tag=pol&polymerid=50002144&target=Sterol+O-acyltransferase+2&column=ki&startPg=0&Increment=50&submit=Search

> <Link to Ligand-Target Pair in BindingDB>
http://www.bindingdb.org/jsp/dbsearch/PrimarySearch_ki.jsp?energyterm=kJ/mole&tag=r21&monomerid=50033969&enzyme=Sterol+O-acyltransferase+2&column=ki&startPg=0&Increment=50&submit=Search

> <Ligand HET ID in PDB>


> <PDB ID(s) for Ligand-Target Complex>


> <PubChem CID>
71355

> <PubChem SID>
103942189

> <ChEBI ID of Ligand>


> <ChEMBL ID of Ligand>
CHEMBL274185

> <DrugBank ID of Ligand>


> <IUPHAR_GRAC ID of Ligand>


> <KEGG ID of Ligand>


> <ZINC ID of Ligand>
ZINC08214598

> <Number of Protein Chains in Target (>1 implies a multichain complex)>
1

> <BindingDB Target Chain Sequence>
MEPKAPQLRRRERQGEEQENGACGEGNTRTHRAPDLVQWTRHMEAVKTQCLEQAQRELAELMDRAIWEAVQAYPKQDRPLPSTASDSTRKTQELHPGKRKVFITRKSLLDELMGVQHFRTIYHMFIAGLCVLIISTLAIDFIDEGRLMLEFDLLLFSFGQLPLALMMWVPMFLSTLLLPYQTLRLWARPRSGGAWTLGASLGCVLLAAHAAVLCVLPVHVSVKHELPPASRCVLVFEQVRFLMKSYSFLRETVPGIFCVRGGKGICTPSFSSYLYFLFCPTLIYRETYPRTPSIRWNYVAKNFAQALGCLLYACFILGRLCVPVFANMSREPFSTRALLLSILHATGPGIFMLLLIFFAFLHCWLNAFAEMLRFGDRMFYRDWWNSTSFSNYYRTWNVVVHDWLYSYVYQDGLWLLGRQGRGAAMLGVFLVSALVHEYIFCFVLGFFYPVMLILFLVVGGLLNFTMNDRHTGPAWNILMWTFLFLGQGIQVSLYCQEWYARRHCPLPQPTFWELVTPRSWSCHP

> <PDB ID(s) of Target Chain>


> <UniProt (SwissProt) Recommended Name of Target Chain>
Sterol O-acyltransferase 2

> <UniProt (SwissProt) Entry Name of Target Chain>
ACAT-2

> <UniProt (SwissProt) Primary ID of Target Chain>
Q7TQM4

> <UniProt (SwissProt) Secondary ID(s) of Target Chain>


> <UniProt (SwissProt) Alternative ID(s) of Target Chain>


> <UniProt (TrEMBL) Submitted Name of Target Chain>


> <UniProt (TrEMBL) Entry Name of Target Chain>


> <UniProt (TrEMBL) Primary ID of Target Chain>


> <UniProt (TrEMBL) Secondary ID(s) of Target Chain>


> <UniProt (TrEMBL) Alternative ID(s) of Target Chain>


$$$$

  Mrv0541 11241417312D          

 50 55  0  0  0  0            999 V2000
   26.7586  -17.5376    0.0000 C   0  0  0  0  0  0  0  0  0  0  0  0
   26.3502  -16.8251    0.0000 C   0  0  1  0  0  0  0  0  0  0  0  0
   25.9373  -17.5350    0.0000 C   0  0  0  0  0  0  0  0  0  0  0  0
   25.6419  -15.5918    0.0000 C   0  0  0  0  0  0  0  0  0  0  0  0
   25.6419  -16.4168    0.0000 C   0  0  2  0  0  0  0  0  0  0  0  0
   26.3538  -15.1751    0.0000 C   0  0  0  0  0  0  0  0  0  0  0  0
   27.0659  -15.5918    0.0000 C   0  0  1  0  0  0  0  0  0  0  0  0
   27.0670  -16.4168    0.0000 C   0  0  1  0  0  0  0  0  0  0  0  0
   27.7780  -16.8261    0.0000 C   0  0  0  0  0  0  0  0  0  0  0  0
   28.4926  -16.4150    0.0000 C   0  0  1  0  0  0  0  0  0  0  0  0
   27.7759  -15.1760    0.0000 C   0  0  2  0  0  0  0  0  0  0  0  0
   28.4934  -15.5906    0.0000 C   0  0  2  0  0  0  0  0  0  0  0  0
   29.2072  -15.1788    0.0000 O   0  0  0  0  0  0  0  0  0  0  0  0
   27.7722  -14.3497    0.0000 C   0  0  2  0  0  0  0  0  0  0  0  0
   28.4922  -13.9362    0.0000 C   0  0  0  0  0  0  0  0  0  0  0  0
   29.2148  -14.3498    0.0000 C   0  0  0  0  0  0  0  0  0  0  0  0
   29.9303  -13.9332    0.0000 C   0  0  0  0  0  0  0  0  0  0  0  0
   29.9296  -13.1012    0.0000 C   0  0  0  0  0  0  0  0  0  0  0  0
   29.2069  -12.6875    0.0000 O   0  0  0  0  0  0  0  0  0  0  0  0
   28.4851  -13.1058    0.0000 C   0  0  0  0  0  0  0  0  0  0  0  0
   30.6422  -12.6896    0.0000 C   0  0  0  0  0  0  0  0  0  0  0  0
   31.3579  -13.1021    0.0000 C   0  0  0  0  0  0  0  0  0  0  0  0
   32.0710  -12.6887    0.0000 N   0  0  0  0  0  0  0  0  0  0  0  0
   32.0696  -11.8628    0.0000 C   0  0  0  0  0  0  0  0  0  0  0  0
   31.3490  -11.4564    0.0000 C   0  0  0  0  0  0  0  0  0  0  0  0
   30.6390  -11.8679    0.0000 C   0  0  0  0  0  0  0  0  0  0  0  0
   29.2065  -16.8284    0.0000 O   0  0  0  0  0  0  0  0  0  0  0  0
   29.9215  -16.4168    0.0000 C   0  0  0  0  0  0  0  0  0  0  0  0
   30.6355  -16.8302    0.0000 C   0  0  0  0  0  0  0  0  0  0  0  0
   29.9225  -15.5918    0.0000 O   0  0  0  0  0  0  0  0  0  0  0  0
   30.6297  -17.6553    0.0000 C   0  0  0  0  0  0  0  0  0  0  0  0
   31.3428  -18.0686    0.0000 C   0  0  0  0  0  0  0  0  0  0  0  0
   32.0589  -17.6570    0.0000 C   0  0  0  0  0  0  0  0  0  0  0  0
   32.0572  -16.8278    0.0000 C   0  0  0  0  0  0  0  0  0  0  0  0
   31.3435  -16.4182    0.0000 C   0  0  0  0  0  0  0  0  0  0  0  0
   32.7726  -18.0657    0.0000 C   0  0  0  0  0  0  0  0  0  0  0  0
   33.4872  -18.4781    0.0000 N   0  0  0  0  0  0  0  0  0  0  0  0
   27.7686  -12.6970    0.0000 O   0  0  0  0  0  0  0  0  0  0  0  0
   27.0572  -13.9380    0.0000 O   0  0  0  0  0  0  0  0  0  0  0  0
   27.0585  -14.7668    0.0000 C   0  0  0  0  0  0  0  0  0  0  0  0
   28.4877  -14.7626    0.0000 C   0  0  0  0  0  0  0  0  0  0  0  0
   24.9280  -16.8303    0.0000 O   0  0  0  0  0  0  0  0  0  0  0  0
   24.2128  -16.4188    0.0000 C   0  0  0  0  0  0  0  0  0  0  0  0
   23.5013  -16.8324    0.0000 C   0  0  0  0  0  0  0  0  0  0  0  0
   24.2117  -15.5938    0.0000 O   0  0  0  0  0  0  0  0  0  0  0  0
   25.1123  -17.5324    0.0000 O   0  0  0  0  0  0  0  0  0  0  0  0
   24.6975  -18.2455    0.0000 C   0  0  0  0  0  0  0  0  0  0  0  0
   23.8725  -18.2429    0.0000 O   0  0  0  0  0  0  0  0  0  0  0  0
   25.1077  -18.9613    0.0000 C   0  0  0  0  0  0  0  0  0  0  0  0
   22.7856  -16.4219    0.0000 C   0  0  0  0  0  0  0  0  0  0  0  0
  2  1  1  1  0  0  0
  2  3  1  6  0  0  0
  5  4  1  0  0  0  0
  4  6  1  0  0  0  0
  2  5  1  0  0  0  0
  8  2  1  0  0  0  0
  7  6  1  0  0  0  0
  7  8  1  0  0  0  0
 11  7  1  1  0  0  0
  8  9  1  1  0  0  0
 10  9  1  0  0  0  0
 12 10  1  0  0  0  0
 11 12  1  0  0  0  0
 11 14  1  0  0  0  0
 12 13  1  0  0  0  0
 13 16  1  0  0  0  0
 14 15  1  0  0  0  0
 15 16  2  0  0  0  0
 15 20  1  0  0  0  0
 16 17  1  0  0  0  0
 17 18  2  0  0  0  0
 18 19  1  0  0  0  0
 19 20  1  0  0  0  0
 21 22  2  0  0  0  0
 22 23  1  0  0  0  0
 23 24  2  0  0  0  0
 24 25  1  0  0  0  0
 25 26  2  0  0  0  0
 26 21  1  0  0  0  0
 18 21  1  0  0  0  0
 10 27  1  1  0  0  0
 27 28  1  0  0  0  0
 28 29  1  0  0  0  0
 28 30  2  0  0  0  0
 29 31  2  0  0  0  0
 31 32  1  0  0  0  0
 32 33  2  0  0  0  0
 33 34  1  0  0  0  0
 34 35  2  0  0  0  0
 35 29  1  0  0  0  0
 36 37  3  0  0  0  0
 33 36  1  0  0  0  0
 20 38  2  0  0  0  0
 14 39  1  1  0  0  0
  7 40  1  1  0  0  0
 12 41  1  1  0  0  0
  5 42  1  1  0  0  0
 42 43  1  0  0  0  0
 43 44  1  0  0  0  0
 43 45  2  0  0  0  0
  3 46  1  0  0  0  0
 46 47  1  0  0  0  0
 47 48  2  0  0  0  0
 47 49  1  0  0  0  0
 44 50  1  0  0  0  0
M  END
> <From>
www.bindingDB.org

> <BindingDB Reactant_set_id>
51061805

> <Ligand InChI>
InChI=1S/C38H40N2O10/c1-6-30(42)48-28-13-14-36(3)27(37(28,4)20-46-21(2)41)17-29(49-34(44)23-11-9-22(18-39)10-12-23)38(5)33(36)32(43)31-26(50-38)16-25(47-35(31)45)24-8-7-15-40-19-24/h7-12,15-16,19,27-29,32-33,43H,6,13-14,17,20H2,1-5H3/t27-,28+,29+,32+,33-,36+,37+,38-/m1/s1

> <Ligand InChI Key>
AFLCDYWHGOSLJQ-LXGHJNSBSA-N

> <BindingDB MonomerID>
50433212

> <BindingDB Ligand Name>
CHEMBL2375705

> <Target Name>
Sterol O-acyltransferase 2

> <Target Source Organism According to Curator or DataSource>


> <Ki (nM)>


> <IC50 (nM)>
 10.0

> <Kd (nM)>


> <EC50 (nM)>


> <kon (M-1-s-1)>


> <koff (s-1)>


> <pH>


> <Temp (C)>


> <Curation/DataSource>
ChEMBL

> <Article DOI>
10.1016/j.bmcl.2013.02.088

> <BindingDB Entry DOI>
10.7270/Q20866P3

> <PMID>
23535327

> <PubChem AID>


> <Patent Number>


> <Authors>
Ohtawa, M; Yamazaki, H; Matsuda, D; Ohshiro, T; Rudel, LL; Omura, S; Tomoda, H; Nagamitsu, T

> <Institution>
Kitasato University

> <Link to Ligand in BindingDB>
http://www.bindingdb.org/bind/chemsearch/marvin/MolStructure.jsp?monomerid=50433212

> <Link to Target in BindingDB>
http://www.bindingdb.org/jsp/dbsearch/PrimarySearch_ki.jsp?energyterm=kJ/mole&tag=pol&polymerid=7773&target=Sterol+O-acyltransferase+2&column=ki&startPg=0&Increment=50&submit=Search

> <Link to Ligand-Target Pair in BindingDB>
http://www.bindingdb.org/jsp/dbsearch/PrimarySearch_ki.jsp?energyterm=kJ/mole&tag=r21&monomerid=50433212&enzyme=Sterol+O-acyltransferase+2&column=ki&startPg=0&Increment=50&submit=Search

> <Ligand HET ID in PDB>


> <PDB ID(s) for Ligand-Target Complex>


> <PubChem CID>
71602766

> <PubChem SID>
175445529

> <ChEBI ID of Ligand>


> <ChEMBL ID of Ligand>
CHEMBL2375705

> <DrugBank ID of Ligand>


> <IUPHAR_GRAC ID of Ligand>


> <KEGG ID of Ligand>


> <ZINC ID of Ligand>
ZINC96258632

> <Number of Protein Chains in Target (>1 implies a multichain complex)>
1

> <BindingDB Target Chain Sequence>
MEPGGARLRLQRTEGLGGERERQPCGDGNTETHRAPDLVQWTRHMEAVKAQLLEQAQGQLRELLDRAMREAIQSYPSQDKPLPPPPPGSLSRTQEPSLGKQKVFIIRKSLLDELMEVQHFRTIYHMFIAGLCVFIISTLAIDFIDEGRLLLEFDLLIFSFGQLPLALVTWVPMFLSTLLAPYQALRLWARGTWTQATGLGCALLAAHAVVLCALPVHVAVEHQLPPASRCVLVFEQVRFLMKSYSFLREAVPGTLRARRGEGIQAPSFSSYLYFLFCPTLIYRETYPRTPYVRWNYVAKNFAQALGCVLYACFILGRLCVPVFANMSREPFSTRALVLSILHATLPGIFMLLLIFFAFLHCWLNAFAEMLRFGDRMFYRDWWNSTSFSNYYRTWNVVVHDWLYSYVYQDGLRLLGARARGVAMLGVFLVSAVAHEYIFCFVLGFFYPVMLILFLVIGGMLNFMMHDQRTGPAWNVLMWTMLFLGQGIQVSLYCQEWYARRHCPLPQATFWGLVTPRSWSCHT

> <PDB ID(s) of Target Chain>


> <UniProt (SwissProt) Recommended Name of Target Chain>
Sterol O-acyltransferase 2

> <UniProt (SwissProt) Entry Name of Target Chain>
ACAT-2

> <UniProt (SwissProt) Primary ID of Target Chain>
O75908

> <UniProt (SwissProt) Secondary ID(s) of Target Chain>
F5H7W4 I6L9H9 Q4VB99 Q4VBA1 Q96TD4 Q9UNR2

> <UniProt (SwissProt) Alternative ID(s) of Target Chain>


> <UniProt (TrEMBL) Submitted Name of Target Chain>


> <UniProt (TrEMBL) Entry Name of Target Chain>


> <UniProt (TrEMBL) Primary ID of Target Chain>


> <UniProt (TrEMBL) Secondary ID(s) of Target Chain>


> <UniProt (TrEMBL) Alternative ID(s) of Target Chain>


$$$$

  Mrv0541 11241417102D          

 48 53  0  0  0  0            999 V2000
   34.0288  -20.4289    0.0000 C   0  0  0  0  0  0  0  0  0  0  0  0
   33.6205  -19.7164    0.0000 C   0  0  2  0  0  0  0  0  0  0  0  0
   33.2076  -20.4263    0.0000 C   0  0  0  0  0  0  0  0  0  0  0  0
   32.9122  -18.4831    0.0000 C   0  0  0  0  0  0  0  0  0  0  0  0
   32.9122  -19.3081    0.0000 C   0  0  2  0  0  0  0  0  0  0  0  0
   33.6242  -18.0665    0.0000 C   0  0  0  0  0  0  0  0  0  0  0  0
   34.3361  -18.4831    0.0000 C   0  0  1  0  0  0  0  0  0  0  0  0
   34.3372  -19.3081    0.0000 C   0  0  1  0  0  0  0  0  0  0  0  0
   35.0483  -19.7174    0.0000 C   0  0  0  0  0  0  0  0  0  0  0  0
   35.7628  -19.3063    0.0000 C   0  0  1  0  0  0  0  0  0  0  0  0
   35.0461  -18.0674    0.0000 C   0  0  2  0  0  0  0  0  0  0  0  0
   35.7614  -18.4860    0.0000 C   0  0  2  0  0  0  0  0  0  0  0  0
   36.4774  -18.0780    0.0000 O   0  0  0  0  0  0  0  0  0  0  0  0
   35.0470  -17.2411    0.0000 C   0  0  2  0  0  0  0  0  0  0  0  0
   35.7693  -16.8315    0.0000 C   0  0  0  0  0  0  0  0  0  0  0  0
   36.4874  -17.2537    0.0000 C   0  0  0  0  0  0  0  0  0  0  0  0
   37.2081  -16.8452    0.0000 C   0  0  0  0  0  0  0  0  0  0  0  0
   37.2169  -16.0129    0.0000 C   0  0  0  0  0  0  0  0  0  0  0  0
   36.4988  -15.5907    0.0000 O   0  0  0  0  0  0  0  0  0  0  0  0
   35.7719  -16.0009    0.0000 C   0  0  0  0  0  0  0  0  0  0  0  0
   37.9307  -15.6086    0.0000 C   0  0  0  0  0  0  0  0  0  0  0  0
   38.6415  -16.0295    0.0000 C   0  0  0  0  0  0  0  0  0  0  0  0
   39.3593  -15.6243    0.0000 N   0  0  0  0  0  0  0  0  0  0  0  0
   39.3674  -14.7984    0.0000 C   0  0  0  0  0  0  0  0  0  0  0  0
   38.6518  -14.3795    0.0000 C   0  0  0  0  0  0  0  0  0  0  0  0
   37.9370  -14.7870    0.0000 C   0  0  0  0  0  0  0  0  0  0  0  0
   35.0601  -15.5837    0.0000 O   0  0  0  0  0  0  0  0  0  0  0  0
   36.4774  -19.7187    0.0000 O   0  0  0  0  0  0  0  0  0  0  0  0
   37.1917  -19.3061    0.0000 C   0  0  0  0  0  0  0  0  0  0  0  0
   37.9063  -19.7185    0.0000 C   0  0  0  0  0  0  0  0  0  0  0  0
   37.1916  -18.4811    0.0000 O   0  0  0  0  0  0  0  0  0  0  0  0
   32.1983  -19.7217    0.0000 O   0  0  0  0  0  0  0  0  0  0  0  0
   31.4833  -19.3102    0.0000 C   0  0  0  0  0  0  0  0  0  0  0  0
   30.7693  -19.7238    0.0000 C   0  0  0  0  0  0  0  0  0  0  0  0
   31.4820  -18.4852    0.0000 O   0  0  0  0  0  0  0  0  0  0  0  0
   33.6140  -21.1421    0.0000 O   0  0  0  0  0  0  0  0  0  0  0  0
   34.0243  -21.8579    0.0000 C   0  0  0  0  0  0  0  0  0  0  0  0
   33.6095  -22.5710    0.0000 C   0  0  0  0  0  0  0  0  0  0  0  0
   34.8492  -21.8605    0.0000 O   0  0  0  0  0  0  0  0  0  0  0  0
   34.3343  -16.8255    0.0000 O   0  0  0  0  0  0  0  0  0  0  0  0
   34.3288  -17.6581    0.0000 C   0  0  0  0  0  0  0  0  0  0  0  0
   35.7537  -17.6581    0.0000 C   0  0  0  0  0  0  0  0  0  0  0  0
   37.9011  -20.5425    0.0000 C   0  0  0  0  0  0  0  0  0  0  0  0
   38.6148  -20.9548    0.0000 C   0  0  0  0  0  0  0  0  0  0  0  0
   39.3301  -20.5422    0.0000 C   0  0  0  0  0  0  0  0  0  0  0  0
   39.3274  -19.7130    0.0000 C   0  0  0  0  0  0  0  0  0  0  0  0
   38.6132  -19.3043    0.0000 C   0  0  0  0  0  0  0  0  0  0  0  0
   38.6088  -18.4794    0.0000 C   0  0  0  0  0  0  0  0  0  0  0  0
  2  1  1  6  0  0  0
  2  3  1  1  0  0  0
  5  4  1  0  0  0  0
  4  6  1  0  0  0  0
  2  5  1  0  0  0  0
  8  2  1  0  0  0  0
  7  6  1  0  0  0  0
  7  8  1  0  0  0  0
 11  7  1  1  0  0  0
  8  9  1  1  0  0  0
 10  9  1  0  0  0  0
 12 10  1  0  0  0  0
 11 12  1  0  0  0  0
 11 14  1  0  0  0  0
 12 13  1  0  0  0  0
 13 16  1  0  0  0  0
 14 15  1  0  0  0  0
 15 16  2  0  0  0  0
 15 20  1  0  0  0  0
 16 17  1  0  0  0  0
 17 18  2  0  0  0  0
 18 19  1  0  0  0  0
 19 20  1  0  0  0  0
 21 22  2  0  0  0  0
 22 23  1  0  0  0  0
 23 24  2  0  0  0  0
 24 25  1  0  0  0  0
 25 26  2  0  0  0  0
 26 21  1  0  0  0  0
 18 21  1  0  0  0  0
 20 27  2  0  0  0  0
 10 28  1  1  0  0  0
 28 29  1  0  0  0  0
 29 30  1  0  0  0  0
 29 31  2  0  0  0  0
  5 32  1  1  0  0  0
 32 33  1  0  0  0  0
 33 34  1  0  0  0  0
 33 35  2  0  0  0  0
  1 36  1  0  0  0  0
 36 37  1  0  0  0  0
 37 38  1  0  0  0  0
 37 39  2  0  0  0  0
 14 40  1  1  0  0  0
  7 41  1  1  0  0  0
 12 42  1  1  0  0  0
 30 43  2  0  0  0  0
 43 44  1  0  0  0  0
 44 45  2  0  0  0  0
 45 46  1  0  0  0  0
 46 47  2  0  0  0  0
 47 30  1  0  0  0  0
 47 48  1  0  0  0  0
M  END
> <From>
www.bindingDB.org

> <BindingDB Reactant_set_id>
51053276

> <Ligand InChI>
InChI=1S/C37H41NO10/c1-20-10-7-8-12-24(20)33(42)47-29-17-27-35(4,14-13-28(45-22(3)40)36(27,5)19-44-21(2)39)32-31(41)30-26(48-37(29,32)6)16-25(46-34(30)43)23-11-9-15-38-18-23/h7-12,15-16,18,27-29,31-32,41H,13-14,17,19H2,1-6H3/t27-,28+,29+,31+,32-,35+,36+,37-/m1/s1

> <Ligand InChI Key>
CMNSJZBBRGQRNB-ZRPSWOMSSA-N

> <BindingDB MonomerID>
50429586

> <BindingDB Ligand Name>
CHEMBL2334203

> <Target Name>
Sterol O-acyltransferase 2

> <Target Source Organism According to Curator or DataSource>


> <Ki (nM)>


> <IC50 (nM)>
 10.0

> <Kd (nM)>


> <EC50 (nM)>


> <kon (M-1-s-1)>


> <koff (s-1)>


> <pH>


> <Temp (C)>


> <Curation/DataSource>
ChEMBL

> <Article DOI>
10.1016/j.bmcl.2012.12.099

> <BindingDB Entry DOI>
10.7270/Q2P270HW

> <PMID>
23369538

> <PubChem AID>


> <Patent Number>


> <Authors>
Ohtawa, M; Yamazaki, H; Ohte, S; Matsuda, D; Ohshiro, T; Rudel, LL; Omura, S; Tomoda, H; Nagamitsu, T

> <Institution>
Kitasato University

> <Link to Ligand in BindingDB>
http://www.bindingdb.org/bind/chemsearch/marvin/MolStructure.jsp?monomerid=50429586

> <Link to Target in BindingDB>
http://www.bindingdb.org/jsp/dbsearch/PrimarySearch_ki.jsp?energyterm=kJ/mole&tag=pol&polymerid=7773&target=Sterol+O-acyltransferase+2&column=ki&startPg=0&Increment=50&submit=Search

> <Link to Ligand-Target Pair in BindingDB>
http://www.bindingdb.org/jsp/dbsearch/PrimarySearch_ki.jsp?energyterm=kJ/mole&tag=r21&monomerid=50429586&enzyme=Sterol+O-acyltransferase+2&column=ki&startPg=0&Increment=50&submit=Search

> <Ligand HET ID in PDB>


> <PDB ID(s) for Ligand-Target Complex>


> <PubChem CID>
71561293

> <PubChem SID>
164158461

> <ChEBI ID of Ligand>


> <ChEMBL ID of Ligand>
CHEMBL2334203

> <DrugBank ID of Ligand>


> <IUPHAR_GRAC ID of Ligand>


> <KEGG ID of Ligand>


> <ZINC ID of Ligand>
ZINC95586530

> <Number of Protein Chains in Target (>1 implies a multichain complex)>
1

> <BindingDB Target Chain Sequence>
MEPGGARLRLQRTEGLGGERERQPCGDGNTETHRAPDLVQWTRHMEAVKAQLLEQAQGQLRELLDRAMREAIQSYPSQDKPLPPPPPGSLSRTQEPSLGKQKVFIIRKSLLDELMEVQHFRTIYHMFIAGLCVFIISTLAIDFIDEGRLLLEFDLLIFSFGQLPLALVTWVPMFLSTLLAPYQALRLWARGTWTQATGLGCALLAAHAVVLCALPVHVAVEHQLPPASRCVLVFEQVRFLMKSYSFLREAVPGTLRARRGEGIQAPSFSSYLYFLFCPTLIYRETYPRTPYVRWNYVAKNFAQALGCVLYACFILGRLCVPVFANMSREPFSTRALVLSILHATLPGIFMLLLIFFAFLHCWLNAFAEMLRFGDRMFYRDWWNSTSFSNYYRTWNVVVHDWLYSYVYQDGLRLLGARARGVAMLGVFLVSAVAHEYIFCFVLGFFYPVMLILFLVIGGMLNFMMHDQRTGPAWNVLMWTMLFLGQGIQVSLYCQEWYARRHCPLPQATFWGLVTPRSWSCHT

> <PDB ID(s) of Target Chain>


> <UniProt (SwissProt) Recommended Name of Target Chain>
Sterol O-acyltransferase 2

> <UniProt (SwissProt) Entry Name of Target Chain>
ACAT-2

> <UniProt (SwissProt) Primary ID of Target Chain>
O75908

> <UniProt (SwissProt) Secondary ID(s) of Target Chain>
F5H7W4 I6L9H9 Q4VB99 Q4VBA1 Q96TD4 Q9UNR2

> <UniProt (SwissProt) Alternative ID(s) of Target Chain>


> <UniProt (TrEMBL) Submitted Name of Target Chain>


> <UniProt (TrEMBL) Entry Name of Target Chain>


> <UniProt (TrEMBL) Primary ID of Target Chain>


> <UniProt (TrEMBL) Secondary ID(s) of Target Chain>


> <UniProt (TrEMBL) Alternative ID(s) of Target Chain>


$$$$

  Mrv0541 11241417102D          

 49 54  0  0  0  0            999 V2000
   23.3171  -20.6795    0.0000 C   0  0  0  0  0  0  0  0  0  0  0  0
   22.9087  -19.9670    0.0000 C   0  0  2  0  0  0  0  0  0  0  0  0
   22.4958  -20.6768    0.0000 C   0  0  0  0  0  0  0  0  0  0  0  0
   22.2004  -18.7336    0.0000 C   0  0  0  0  0  0  0  0  0  0  0  0
   22.2004  -19.5586    0.0000 C   0  0  2  0  0  0  0  0  0  0  0  0
   22.9124  -18.3170    0.0000 C   0  0  0  0  0  0  0  0  0  0  0  0
   23.6244  -18.7336    0.0000 C   0  0  1  0  0  0  0  0  0  0  0  0
   23.6255  -19.5586    0.0000 C   0  0  1  0  0  0  0  0  0  0  0  0
   24.3365  -19.9679    0.0000 C   0  0  0  0  0  0  0  0  0  0  0  0
   25.0511  -19.5568    0.0000 C   0  0  1  0  0  0  0  0  0  0  0  0
   24.3344  -18.3180    0.0000 C   0  0  2  0  0  0  0  0  0  0  0  0
   25.0497  -18.7364    0.0000 C   0  0  2  0  0  0  0  0  0  0  0  0
   25.7657  -18.3286    0.0000 O   0  0  0  0  0  0  0  0  0  0  0  0
   24.3352  -17.4915    0.0000 C   0  0  2  0  0  0  0  0  0  0  0  0
   25.0576  -17.0821    0.0000 C   0  0  0  0  0  0  0  0  0  0  0  0
   25.7757  -17.5042    0.0000 C   0  0  0  0  0  0  0  0  0  0  0  0
   26.4964  -17.0957    0.0000 C   0  0  0  0  0  0  0  0  0  0  0  0
   26.5052  -16.2633    0.0000 C   0  0  0  0  0  0  0  0  0  0  0  0
   25.7871  -15.8411    0.0000 O   0  0  0  0  0  0  0  0  0  0  0  0
   25.0601  -16.2513    0.0000 C   0  0  0  0  0  0  0  0  0  0  0  0
   27.2191  -15.8591    0.0000 C   0  0  0  0  0  0  0  0  0  0  0  0
   27.9299  -16.2798    0.0000 C   0  0  0  0  0  0  0  0  0  0  0  0
   28.6477  -15.8747    0.0000 N   0  0  0  0  0  0  0  0  0  0  0  0
   28.6558  -15.0489    0.0000 C   0  0  0  0  0  0  0  0  0  0  0  0
   27.9402  -14.6298    0.0000 C   0  0  0  0  0  0  0  0  0  0  0  0
   27.2253  -15.0375    0.0000 C   0  0  0  0  0  0  0  0  0  0  0  0
   24.3483  -15.8341    0.0000 O   0  0  0  0  0  0  0  0  0  0  0  0
   25.7656  -19.9692    0.0000 O   0  0  0  0  0  0  0  0  0  0  0  0
   26.4801  -19.5566    0.0000 C   0  0  0  0  0  0  0  0  0  0  0  0
   27.1946  -19.9690    0.0000 C   0  0  0  0  0  0  0  0  0  0  0  0
   26.4799  -18.7316    0.0000 O   0  0  0  0  0  0  0  0  0  0  0  0
   21.4865  -19.9722    0.0000 O   0  0  0  0  0  0  0  0  0  0  0  0
   20.7714  -19.5608    0.0000 C   0  0  0  0  0  0  0  0  0  0  0  0
   20.0575  -19.9743    0.0000 C   0  0  0  0  0  0  0  0  0  0  0  0
   20.7702  -18.7357    0.0000 O   0  0  0  0  0  0  0  0  0  0  0  0
   22.9022  -21.3926    0.0000 O   0  0  0  0  0  0  0  0  0  0  0  0
   23.3125  -22.1084    0.0000 C   0  0  0  0  0  0  0  0  0  0  0  0
   22.8977  -22.8216    0.0000 C   0  0  0  0  0  0  0  0  0  0  0  0
   24.1374  -22.1111    0.0000 O   0  0  0  0  0  0  0  0  0  0  0  0
   23.6226  -17.0759    0.0000 O   0  0  0  0  0  0  0  0  0  0  0  0
   23.6170  -17.9086    0.0000 C   0  0  0  0  0  0  0  0  0  0  0  0
   25.0420  -17.9086    0.0000 C   0  0  0  0  0  0  0  0  0  0  0  0
   27.1895  -20.7930    0.0000 C   0  0  0  0  0  0  0  0  0  0  0  0
   27.9031  -21.2054    0.0000 C   0  0  0  0  0  0  0  0  0  0  0  0
   28.6185  -20.7927    0.0000 C   0  0  0  0  0  0  0  0  0  0  0  0
   28.6158  -19.9635    0.0000 C   0  0  0  0  0  0  0  0  0  0  0  0
   27.9015  -19.5549    0.0000 C   0  0  0  0  0  0  0  0  0  0  0  0
   29.3244  -19.5480    0.0000 C   0  0  0  0  0  0  0  0  0  0  0  0
   30.0374  -19.1330    0.0000 N   0  0  0  0  0  0  0  0  0  0  0  0
  2  1  1  6  0  0  0
  2  3  1  1  0  0  0
  5  4  1  0  0  0  0
  4  6  1  0  0  0  0
  2  5  1  0  0  0  0
  8  2  1  0  0  0  0
  7  6  1  0  0  0  0
  7  8  1  0  0  0  0
 11  7  1  1  0  0  0
  8  9  1  1  0  0  0
 10  9  1  0  0  0  0
 12 10  1  0  0  0  0
 11 12  1  0  0  0  0
 11 14  1  0  0  0  0
 12 13  1  0  0  0  0
 13 16  1  0  0  0  0
 14 15  1  0  0  0  0
 15 16  2  0  0  0  0
 15 20  1  0  0  0  0
 16 17  1  0  0  0  0
 17 18  2  0  0  0  0
 18 19  1  0  0  0  0
 19 20  1  0  0  0  0
 21 22  2  0  0  0  0
 22 23  1  0  0  0  0
 23 24  2  0  0  0  0
 24 25  1  0  0  0  0
 25 26  2  0  0  0  0
 26 21  1  0  0  0  0
 18 21  1  0  0  0  0
 20 27  2  0  0  0  0
 10 28  1  1  0  0  0
 28 29  1  0  0  0  0
 29 30  1  0  0  0  0
 29 31  2  0  0  0  0
  5 32  1  1  0  0  0
 32 33  1  0  0  0  0
 33 34  1  0  0  0  0
 33 35  2  0  0  0  0
  1 36  1  0  0  0  0
 36 37  1  0  0  0  0
 37 38  1  0  0  0  0
 37 39  2  0  0  0  0
 14 40  1  1  0  0  0
  7 41  1  1  0  0  0
 12 42  1  1  0  0  0
 30 43  2  0  0  0  0
 43 44  1  0  0  0  0
 44 45  2  0  0  0  0
 45 46  1  0  0  0  0
 46 47  2  0  0  0  0
 47 30  1  0  0  0  0
 48 49  3  0  0  0  0
 46 48  1  0  0  0  0
M  END
> <From>
www.bindingDB.org

> <BindingDB Reactant_set_id>
51053277

> <Ligand InChI>
InChI=1S/C37H38N2O10/c1-20(40)45-19-36(4)27-16-29(48-33(43)23-9-6-8-22(14-23)17-38)37(5)32(35(27,3)12-11-28(36)46-21(2)41)31(42)30-26(49-37)15-25(47-34(30)44)24-10-7-13-39-18-24/h6-10,13-15,18,27-29,31-32,42H,11-12,16,19H2,1-5H3/t27-,28+,29+,31+,32-,35+,36+,37-/m1/s1

> <Ligand InChI Key>
JANLXDVWIISBJQ-ZRPSWOMSSA-N

> <BindingDB MonomerID>
50429587

> <BindingDB Ligand Name>
CHEMBL2334202

> <Target Name>
Sterol O-acyltransferase 2

> <Target Source Organism According to Curator or DataSource>


> <Ki (nM)>


> <IC50 (nM)>
 10.0

> <Kd (nM)>


> <EC50 (nM)>


> <kon (M-1-s-1)>


> <koff (s-1)>


> <pH>


> <Temp (C)>


> <Curation/DataSource>
ChEMBL

> <Article DOI>
10.1016/j.bmcl.2012.12.099

> <BindingDB Entry DOI>
10.7270/Q2P270HW

> <PMID>
23369538

> <PubChem AID>


> <Patent Number>


> <Authors>
Ohtawa, M; Yamazaki, H; Ohte, S; Matsuda, D; Ohshiro, T; Rudel, LL; Omura, S; Tomoda, H; Nagamitsu, T

> <Institution>
Kitasato University

> <Link to Ligand in BindingDB>
http://www.bindingdb.org/bind/chemsearch/marvin/MolStructure.jsp?monomerid=50429587

> <Link to Target in BindingDB>
http://www.bindingdb.org/jsp/dbsearch/PrimarySearch_ki.jsp?energyterm=kJ/mole&tag=pol&polymerid=7773&target=Sterol+O-acyltransferase+2&column=ki&startPg=0&Increment=50&submit=Search

> <Link to Ligand-Target Pair in BindingDB>
http://www.bindingdb.org/jsp/dbsearch/PrimarySearch_ki.jsp?energyterm=kJ/mole&tag=r21&monomerid=50429587&enzyme=Sterol+O-acyltransferase+2&column=ki&startPg=0&Increment=50&submit=Search

> <Ligand HET ID in PDB>


> <PDB ID(s) for Ligand-Target Complex>


> <PubChem CID>
71561178

> <PubChem SID>
164158462

> <ChEBI ID of Ligand>


> <ChEMBL ID of Ligand>
CHEMBL2334202

> <DrugBank ID of Ligand>


> <IUPHAR_GRAC ID of Ligand>


> <KEGG ID of Ligand>


> <ZINC ID of Ligand>
ZINC95589137

> <Number of Protein Chains in Target (>1 implies a multichain complex)>
1

> <BindingDB Target Chain Sequence>
MEPGGARLRLQRTEGLGGERERQPCGDGNTETHRAPDLVQWTRHMEAVKAQLLEQAQGQLRELLDRAMREAIQSYPSQDKPLPPPPPGSLSRTQEPSLGKQKVFIIRKSLLDELMEVQHFRTIYHMFIAGLCVFIISTLAIDFIDEGRLLLEFDLLIFSFGQLPLALVTWVPMFLSTLLAPYQALRLWARGTWTQATGLGCALLAAHAVVLCALPVHVAVEHQLPPASRCVLVFEQVRFLMKSYSFLREAVPGTLRARRGEGIQAPSFSSYLYFLFCPTLIYRETYPRTPYVRWNYVAKNFAQALGCVLYACFILGRLCVPVFANMSREPFSTRALVLSILHATLPGIFMLLLIFFAFLHCWLNAFAEMLRFGDRMFYRDWWNSTSFSNYYRTWNVVVHDWLYSYVYQDGLRLLGARARGVAMLGVFLVSAVAHEYIFCFVLGFFYPVMLILFLVIGGMLNFMMHDQRTGPAWNVLMWTMLFLGQGIQVSLYCQEWYARRHCPLPQATFWGLVTPRSWSCHT

> <PDB ID(s) of Target Chain>


> <UniProt (SwissProt) Recommended Name of Target Chain>
Sterol O-acyltransferase 2

> <UniProt (SwissProt) Entry Name of Target Chain>
ACAT-2

> <UniProt (SwissProt) Primary ID of Target Chain>
O75908

> <UniProt (SwissProt) Secondary ID(s) of Target Chain>
F5H7W4 I6L9H9 Q4VB99 Q4VBA1 Q96TD4 Q9UNR2

> <UniProt (SwissProt) Alternative ID(s) of Target Chain>


> <UniProt (TrEMBL) Submitted Name of Target Chain>


> <UniProt (TrEMBL) Entry Name of Target Chain>


> <UniProt (TrEMBL) Primary ID of Target Chain>


> <UniProt (TrEMBL) Secondary ID(s) of Target Chain>


> <UniProt (TrEMBL) Alternative ID(s) of Target Chain>


$$$$

  Mrv0541 11241418062D          

 49 56  0  0  0  0            999 V2000
    1.4763  -13.1909    0.0000 C   0  0  0  0  0  0  0  0  0  0  0  0
    2.1890  -12.7739    0.0000 C   0  0  0  0  0  0  0  0  0  0  0  0
    2.9016  -13.1909    0.0000 C   0  0  1  0  0  0  0  0  0  0  0  0
    2.9026  -14.0167    0.0000 C   0  0  1  0  0  0  0  0  0  0  0  0
    3.6144  -14.4264    0.0000 C   0  0  0  0  0  0  0  0  0  0  0  0
    4.3295  -14.0149    0.0000 C   0  0  1  0  0  0  0  0  0  0  0  0
    3.6123  -12.7749    0.0000 C   0  0  2  0  0  0  0  0  0  0  0  0
    4.3242  -13.1914    0.0000 C   0  0  2  0  0  0  0  0  0  0  0  0
    5.0369  -12.7854    0.0000 O   0  0  0  0  0  0  0  0  0  0  0  0
    3.6131  -11.9523    0.0000 C   0  0  2  0  0  0  0  0  0  0  0  0
    2.1890  -14.4254    0.0000 C   0  0  1  0  0  0  0  0  0  0  0  0
    1.4763  -14.0167    0.0000 C   0  0  1  0  0  0  0  0  0  0  0  0
    0.7700  -14.4272    0.0000 O   0  0  0  0  0  0  0  0  0  0  0  0
    0.7701  -15.2481    0.0000 C   0  0  1  0  0  0  0  0  0  0  0  0
    1.4827  -15.6569    0.0000 O   0  0  0  0  0  0  0  0  0  0  0  0
    2.1953  -15.2447    0.0000 C   0  0  0  0  0  0  0  0  0  0  0  0
    4.3320  -11.5447    0.0000 C   0  0  0  0  0  0  0  0  0  0  0  0
    5.0424  -11.9627    0.0000 C   0  0  0  0  0  0  0  0  0  0  0  0
    5.7557  -11.5588    0.0000 C   0  0  0  0  0  0  0  0  0  0  0  0
    5.7649  -10.7352    0.0000 C   0  0  0  0  0  0  0  0  0  0  0  0
    5.0545  -10.3172    0.0000 O   0  0  0  0  0  0  0  0  0  0  0  0
    4.3350  -10.7227    0.0000 C   0  0  0  0  0  0  0  0  0  0  0  0
    3.6228  -10.3049    0.0000 O   0  0  0  0  0  0  0  0  0  0  0  0
    2.8998  -11.5363    0.0000 O   0  0  0  0  0  0  0  0  0  0  0  0
    4.3164  -12.3652    0.0000 C   0  0  0  0  0  0  0  0  0  0  0  0
    5.0457  -14.4259    0.0000 O   0  0  0  0  0  0  0  0  0  0  0  0
    2.8943  -12.3652    0.0000 C   0  0  0  0  0  0  0  0  0  0  0  0
    2.1811  -13.5997    0.0000 C   0  0  0  0  0  0  0  0  0  0  0  0
    5.7598  -14.0112    0.0000 C   0  0  0  0  0  0  0  0  0  0  0  0
    6.4759  -14.4224    0.0000 C   0  0  0  0  0  0  0  0  0  0  0  0
    5.7577  -13.1856    0.0000 O   0  0  0  0  0  0  0  0  0  0  0  0
    6.4759  -15.2480    0.0000 C   0  0  0  0  0  0  0  0  0  0  0  0
    7.1912  -15.6591    0.0000 C   0  0  0  0  0  0  0  0  0  0  0  0
    7.9062  -15.2443    0.0000 C   0  0  0  0  0  0  0  0  0  0  0  0
    7.9015  -14.4143    0.0000 C   0  0  0  0  0  0  0  0  0  0  0  0
    7.1857  -14.0071    0.0000 C   0  0  0  0  0  0  0  0  0  0  0  0
    6.4843  -10.3300    0.0000 C   0  0  0  0  0  0  0  0  0  0  0  0
    7.1956  -10.7516    0.0000 C   0  0  0  0  0  0  0  0  0  0  0  0
    7.9142  -10.3464    0.0000 N   0  0  0  0  0  0  0  0  0  0  0  0
    7.9227   -9.5198    0.0000 C   0  0  0  0  0  0  0  0  0  0  0  0
    7.2066   -9.1001    0.0000 C   0  0  0  0  0  0  0  0  0  0  0  0
    6.4910   -9.5077    0.0000 C   0  0  0  0  0  0  0  0  0  0  0  0
    8.6229  -15.6544    0.0000 Br  0  0  0  0  0  0  0  0  0  0  0  0
    0.0562  -15.6616    0.0000 C   0  0  0  0  0  0  0  0  0  0  0  0
   -0.6582  -15.2491    0.0000 C   0  0  0  0  0  0  0  0  0  0  0  0
   -1.3727  -15.6616    0.0000 C   0  0  0  0  0  0  0  0  0  0  0  0
   -1.3727  -16.4866    0.0000 C   0  0  0  0  0  0  0  0  0  0  0  0
   -0.6582  -16.8992    0.0000 C   0  0  0  0  0  0  0  0  0  0  0  0
    0.0562  -16.4866    0.0000 C   0  0  0  0  0  0  0  0  0  0  0  0
 12  1  1  0  0  0  0
  1  2  1  0  0  0  0
  4 11  1  0  0  0  0
  3  2  1  0  0  0  0
  3  4  1  0  0  0  0
  7  3  1  1  0  0  0
  4  5  1  1  0  0  0
  6  5  1  0  0  0  0
  8  6  1  0  0  0  0
  7  8  1  0  0  0  0
  7 10  1  0  0  0  0
  8  9  1  0  0  0  0
  9 18  1  0  0  0  0
 10 17  1  0  0  0  0
 11 12  1  0  0  0  0
 11 16  1  0  0  0  0
 12 13  1  1  0  0  0
 14 13  1  0  0  0  0
 14 15  1  0  0  0  0
 15 16  1  0  0  0  0
 17 18  2  0  0  0  0
 17 22  1  0  0  0  0
 18 19  1  0  0  0  0
 19 20  2  0  0  0  0
 20 21  1  0  0  0  0
 21 22  1  0  0  0  0
 22 23  2  0  0  0  0
 10 24  1  1  0  0  0
  8 25  1  1  0  0  0
  6 26  1  1  0  0  0
  3 27  1  1  0  0  0
 11 28  1  1  0  0  0
 26 29  1  0  0  0  0
 29 30  1  0  0  0  0
 29 31  2  0  0  0  0
 30 32  2  0  0  0  0
 32 33  1  0  0  0  0
 33 34  2  0  0  0  0
 34 35  1  0  0  0  0
 35 36  2  0  0  0  0
 36 30  1  0  0  0  0
 37 38  2  0  0  0  0
 38 39  1  0  0  0  0
 39 40  2  0  0  0  0
 40 41  1  0  0  0  0
 41 42  2  0  0  0  0
 42 37  1  0  0  0  0
 20 37  1  0  0  0  0
 34 43  1  0  0  0  0
 14 44  1  1  0  0  0
 49 44  2  0  0  0  0
 45 44  1  0  0  0  0
 45 46  2  0  0  0  0
 46 47  1  0  0  0  0
 47 48  2  0  0  0  0
 48 49  1  0  0  0  0
M  END
> <From>
www.bindingDB.org

> <BindingDB Reactant_set_id>
51068428

> <Ligand InChI>
InChI=1S/C39H38BrNO8/c1-37-16-15-29-38(2,21-45-36(48-29)23-8-5-4-6-9-23)28(37)19-30(47-34(43)22-11-13-25(40)14-12-22)39(3)33(37)32(42)31-27(49-39)18-26(46-35(31)44)24-10-7-17-41-20-24/h4-14,17-18,20,28-30,32-33,36,42H,15-16,19,21H2,1-3H3/t28-,29+,30+,32+,33-,36-,37+,38+,39-/m1/s1

> <Ligand InChI Key>
MOVFSWCSVVAQKY-MKSFZIRSSA-N

> <BindingDB MonomerID>
50436341

> <BindingDB Ligand Name>
CHEMBL2398818

> <Target Name>
Sterol O-acyltransferase 2

> <Target Source Organism According to Curator or DataSource>


> <Ki (nM)>


> <IC50 (nM)>
 10.0

> <Kd (nM)>


> <EC50 (nM)>


> <kon (M-1-s-1)>


> <koff (s-1)>


> <pH>


> <Temp (C)>


> <Curation/DataSource>
ChEMBL

> <Article DOI>
10.1016/j.bmcl.2013.04.075

> <BindingDB Entry DOI>
10.7270/Q2WD41Z9

> <PMID>
23711919

> <PubChem AID>


> <Patent Number>


> <Authors>
Ohtawa, M; Yamazaki, H; Ohte, S; Matsuda, D; Ohshiro, T; Rudel, LL; Omura, S; Tomoda, H; Nagamitsu, T

> <Institution>
Kitasato University

> <Link to Ligand in BindingDB>
http://www.bindingdb.org/bind/chemsearch/marvin/MolStructure.jsp?monomerid=50436341

> <Link to Target in BindingDB>
http://www.bindingdb.org/jsp/dbsearch/PrimarySearch_ki.jsp?energyterm=kJ/mole&tag=pol&polymerid=7773&target=Sterol+O-acyltransferase+2&column=ki&startPg=0&Increment=50&submit=Search

> <Link to Ligand-Target Pair in BindingDB>
http://www.bindingdb.org/jsp/dbsearch/PrimarySearch_ki.jsp?energyterm=kJ/mole&tag=r21&monomerid=50436341&enzyme=Sterol+O-acyltransferase+2&column=ki&startPg=0&Increment=50&submit=Search

> <Ligand HET ID in PDB>


> <PDB ID(s) for Ligand-Target Complex>


> <PubChem CID>
71682202

> <PubChem SID>
175448658

> <ChEBI ID of Ligand>


> <ChEMBL ID of Ligand>
CHEMBL2398818

> <DrugBank ID of Ligand>


> <IUPHAR_GRAC ID of Ligand>


> <KEGG ID of Ligand>


> <ZINC ID of Ligand>
ZINC96272254

> <Number of Protein Chains in Target (>1 implies a multichain complex)>
1

> <BindingDB Target Chain Sequence>
MEPGGARLRLQRTEGLGGERERQPCGDGNTETHRAPDLVQWTRHMEAVKAQLLEQAQGQLRELLDRAMREAIQSYPSQDKPLPPPPPGSLSRTQEPSLGKQKVFIIRKSLLDELMEVQHFRTIYHMFIAGLCVFIISTLAIDFIDEGRLLLEFDLLIFSFGQLPLALVTWVPMFLSTLLAPYQALRLWARGTWTQATGLGCALLAAHAVVLCALPVHVAVEHQLPPASRCVLVFEQVRFLMKSYSFLREAVPGTLRARRGEGIQAPSFSSYLYFLFCPTLIYRETYPRTPYVRWNYVAKNFAQALGCVLYACFILGRLCVPVFANMSREPFSTRALVLSILHATLPGIFMLLLIFFAFLHCWLNAFAEMLRFGDRMFYRDWWNSTSFSNYYRTWNVVVHDWLYSYVYQDGLRLLGARARGVAMLGVFLVSAVAHEYIFCFVLGFFYPVMLILFLVIGGMLNFMMHDQRTGPAWNVLMWTMLFLGQGIQVSLYCQEWYARRHCPLPQATFWGLVTPRSWSCHT

> <PDB ID(s) of Target Chain>


> <UniProt (SwissProt) Recommended Name of Target Chain>
Sterol O-acyltransferase 2

> <UniProt (SwissProt) Entry Name of Target Chain>
ACAT-2

> <UniProt (SwissProt) Primary ID of Target Chain>
O75908

> <UniProt (SwissProt) Secondary ID(s) of Target Chain>
F5H7W4 I6L9H9 Q4VB99 Q4VBA1 Q96TD4 Q9UNR2

> <UniProt (SwissProt) Alternative ID(s) of Target Chain>


> <UniProt (TrEMBL) Submitted Name of Target Chain>


> <UniProt (TrEMBL) Entry Name of Target Chain>


> <UniProt (TrEMBL) Primary ID of Target Chain>


> <UniProt (TrEMBL) Secondary ID(s) of Target Chain>


> <UniProt (TrEMBL) Alternative ID(s) of Target Chain>


$$$$

  Mrv0541 11241417102D          

 49 54  0  0  0  0            999 V2000
    0.8333  -30.5049    0.0000 C   0  0  0  0  0  0  0  0  0  0  0  0
    0.4250  -29.7924    0.0000 C   0  0  2  0  0  0  0  0  0  0  0  0
    0.0121  -30.5022    0.0000 C   0  0  0  0  0  0  0  0  0  0  0  0
   -0.2834  -28.5590    0.0000 C   0  0  0  0  0  0  0  0  0  0  0  0
   -0.2834  -29.3840    0.0000 C   0  0  2  0  0  0  0  0  0  0  0  0
    0.4287  -28.1423    0.0000 C   0  0  0  0  0  0  0  0  0  0  0  0
    1.1407  -28.5590    0.0000 C   0  0  1  0  0  0  0  0  0  0  0  0
    1.1417  -29.3840    0.0000 C   0  0  1  0  0  0  0  0  0  0  0  0
    1.8529  -29.7934    0.0000 C   0  0  0  0  0  0  0  0  0  0  0  0
    2.5675  -29.3822    0.0000 C   0  0  1  0  0  0  0  0  0  0  0  0
    1.8508  -28.1434    0.0000 C   0  0  2  0  0  0  0  0  0  0  0  0
    2.5659  -28.5618    0.0000 C   0  0  2  0  0  0  0  0  0  0  0  0
    3.2820  -28.1540    0.0000 O   0  0  0  0  0  0  0  0  0  0  0  0
    1.8516  -27.3169    0.0000 C   0  0  2  0  0  0  0  0  0  0  0  0
    2.5739  -26.9074    0.0000 C   0  0  0  0  0  0  0  0  0  0  0  0
    3.2920  -27.3296    0.0000 C   0  0  0  0  0  0  0  0  0  0  0  0
    4.0127  -26.9211    0.0000 C   0  0  0  0  0  0  0  0  0  0  0  0
    4.0216  -26.0887    0.0000 C   0  0  0  0  0  0  0  0  0  0  0  0
    3.3034  -25.6664    0.0000 O   0  0  0  0  0  0  0  0  0  0  0  0
    2.5764  -26.0766    0.0000 C   0  0  0  0  0  0  0  0  0  0  0  0
    4.7353  -25.6844    0.0000 C   0  0  0  0  0  0  0  0  0  0  0  0
    5.4463  -26.1052    0.0000 C   0  0  0  0  0  0  0  0  0  0  0  0
    6.1641  -25.7001    0.0000 N   0  0  0  0  0  0  0  0  0  0  0  0
    6.1722  -24.8742    0.0000 C   0  0  0  0  0  0  0  0  0  0  0  0
    5.4565  -24.4553    0.0000 C   0  0  0  0  0  0  0  0  0  0  0  0
    4.7416  -24.8628    0.0000 C   0  0  0  0  0  0  0  0  0  0  0  0
    1.8647  -25.6595    0.0000 O   0  0  0  0  0  0  0  0  0  0  0  0
    3.2819  -29.7946    0.0000 O   0  0  0  0  0  0  0  0  0  0  0  0
    3.9964  -29.3820    0.0000 C   0  0  0  0  0  0  0  0  0  0  0  0
    4.7109  -29.7944    0.0000 C   0  0  0  0  0  0  0  0  0  0  0  0
    3.9963  -28.5570    0.0000 O   0  0  0  0  0  0  0  0  0  0  0  0
   -1.0028  -29.7975    0.0000 O   0  0  0  0  0  0  0  0  0  0  0  0
   -1.7128  -29.3861    0.0000 C   0  0  0  0  0  0  0  0  0  0  0  0
   -2.4323  -29.7997    0.0000 C   0  0  0  0  0  0  0  0  0  0  0  0
   -1.7199  -28.5611    0.0000 O   0  0  0  0  0  0  0  0  0  0  0  0
    0.4186  -31.2180    0.0000 O   0  0  0  0  0  0  0  0  0  0  0  0
    0.8288  -31.9339    0.0000 C   0  0  0  0  0  0  0  0  0  0  0  0
    0.4140  -32.6470    0.0000 C   0  0  0  0  0  0  0  0  0  0  0  0
    1.6538  -31.9365    0.0000 O   0  0  0  0  0  0  0  0  0  0  0  0
    1.1389  -26.9013    0.0000 O   0  0  0  0  0  0  0  0  0  0  0  0
    1.1334  -27.7340    0.0000 C   0  0  0  0  0  0  0  0  0  0  0  0
    2.5584  -27.7340    0.0000 C   0  0  0  0  0  0  0  0  0  0  0  0
    4.7058  -30.6184    0.0000 C   0  0  0  0  0  0  0  0  0  0  0  0
    5.4195  -31.0309    0.0000 C   0  0  0  0  0  0  0  0  0  0  0  0
    6.1349  -30.6181    0.0000 C   0  0  0  0  0  0  0  0  0  0  0  0
    6.1322  -29.7889    0.0000 C   0  0  0  0  0  0  0  0  0  0  0  0
    5.4178  -29.3803    0.0000 C   0  0  0  0  0  0  0  0  0  0  0  0
    6.8452  -29.3737    0.0000 C   0  0  0  0  0  0  0  0  0  0  0  0
    7.5611  -29.7836    0.0000 C   0  0  0  0  0  0  0  0  0  0  0  0
  2  1  1  6  0  0  0
  2  3  1  1  0  0  0
  5  4  1  0  0  0  0
  4  6  1  0  0  0  0
  2  5  1  0  0  0  0
  8  2  1  0  0  0  0
  7  6  1  0  0  0  0
  7  8  1  0  0  0  0
 11  7  1  1  0  0  0
  8  9  1  1  0  0  0
 10  9  1  0  0  0  0
 12 10  1  0  0  0  0
 11 12  1  0  0  0  0
 11 14  1  0  0  0  0
 12 13  1  0  0  0  0
 13 16  1  0  0  0  0
 14 15  1  0  0  0  0
 15 16  2  0  0  0  0
 15 20  1  0  0  0  0
 16 17  1  0  0  0  0
 17 18  2  0  0  0  0
 18 19  1  0  0  0  0
 19 20  1  0  0  0  0
 21 22  2  0  0  0  0
 22 23  1  0  0  0  0
 23 24  2  0  0  0  0
 24 25  1  0  0  0  0
 25 26  2  0  0  0  0
 26 21  1  0  0  0  0
 18 21  1  0  0  0  0
 20 27  2  0  0  0  0
 10 28  1  1  0  0  0
 28 29  1  0  0  0  0
 29 30  1  0  0  0  0
 29 31  2  0  0  0  0
  5 32  1  1  0  0  0
 32 33  1  0  0  0  0
 33 34  1  0  0  0  0
 33 35  2  0  0  0  0
  1 36  1  0  0  0  0
 36 37  1  0  0  0  0
 37 38  1  0  0  0  0
 37 39  2  0  0  0  0
 14 40  1  1  0  0  0
  7 41  1  1  0  0  0
 12 42  1  1  0  0  0
 30 43  2  0  0  0  0
 43 44  1  0  0  0  0
 44 45  2  0  0  0  0
 45 46  1  0  0  0  0
 46 47  2  0  0  0  0
 47 30  1  0  0  0  0
 46 48  1  0  0  0  0
 48 49  2  0  0  0  0
M  END
> <From>
www.bindingDB.org

> <BindingDB Reactant_set_id>
51053275

> <Ligand InChI>
InChI=1S/C38H41NO10/c1-7-23-10-8-11-24(16-23)34(43)48-30-18-28-36(4,14-13-29(46-22(3)41)37(28,5)20-45-21(2)40)33-32(42)31-27(49-38(30,33)6)17-26(47-35(31)44)25-12-9-15-39-19-25/h7-12,15-17,19,28-30,32-33,42H,1,13-14,18,20H2,2-6H3/t28-,29+,30+,32+,33-,36+,37+,38-/m1/s1

> <Ligand InChI Key>
FJCQBLMYDVANLB-DYBHYMMPSA-N

> <BindingDB MonomerID>
50429585

> <BindingDB Ligand Name>
CHEMBL2334204

> <Target Name>
Sterol O-acyltransferase 2

> <Target Source Organism According to Curator or DataSource>


> <Ki (nM)>


> <IC50 (nM)>
 11

> <Kd (nM)>


> <EC50 (nM)>


> <kon (M-1-s-1)>


> <koff (s-1)>


> <pH>


> <Temp (C)>


> <Curation/DataSource>
ChEMBL

> <Article DOI>
10.1016/j.bmcl.2012.12.099

> <BindingDB Entry DOI>
10.7270/Q2P270HW

> <PMID>
23369538

> <PubChem AID>


> <Patent Number>


> <Authors>
Ohtawa, M; Yamazaki, H; Ohte, S; Matsuda, D; Ohshiro, T; Rudel, LL; Omura, S; Tomoda, H; Nagamitsu, T

> <Institution>
Kitasato University

> <Link to Ligand in BindingDB>
http://www.bindingdb.org/bind/chemsearch/marvin/MolStructure.jsp?monomerid=50429585

> <Link to Target in BindingDB>
http://www.bindingdb.org/jsp/dbsearch/PrimarySearch_ki.jsp?energyterm=kJ/mole&tag=pol&polymerid=7773&target=Sterol+O-acyltransferase+2&column=ki&startPg=0&Increment=50&submit=Search

> <Link to Ligand-Target Pair in BindingDB>
http://www.bindingdb.org/jsp/dbsearch/PrimarySearch_ki.jsp?energyterm=kJ/mole&tag=r21&monomerid=50429585&enzyme=Sterol+O-acyltransferase+2&column=ki&startPg=0&Increment=50&submit=Search

> <Ligand HET ID in PDB>


> <PDB ID(s) for Ligand-Target Complex>


> <PubChem CID>
71561294

> <PubChem SID>
164158460

> <ChEBI ID of Ligand>


> <ChEMBL ID of Ligand>
CHEMBL2334204

> <DrugBank ID of Ligand>


> <IUPHAR_GRAC ID of Ligand>


> <KEGG ID of Ligand>


> <ZINC ID of Ligand>
ZINC95588847

> <Number of Protein Chains in Target (>1 implies a multichain complex)>
1

> <BindingDB Target Chain Sequence>
MEPGGARLRLQRTEGLGGERERQPCGDGNTETHRAPDLVQWTRHMEAVKAQLLEQAQGQLRELLDRAMREAIQSYPSQDKPLPPPPPGSLSRTQEPSLGKQKVFIIRKSLLDELMEVQHFRTIYHMFIAGLCVFIISTLAIDFIDEGRLLLEFDLLIFSFGQLPLALVTWVPMFLSTLLAPYQALRLWARGTWTQATGLGCALLAAHAVVLCALPVHVAVEHQLPPASRCVLVFEQVRFLMKSYSFLREAVPGTLRARRGEGIQAPSFSSYLYFLFCPTLIYRETYPRTPYVRWNYVAKNFAQALGCVLYACFILGRLCVPVFANMSREPFSTRALVLSILHATLPGIFMLLLIFFAFLHCWLNAFAEMLRFGDRMFYRDWWNSTSFSNYYRTWNVVVHDWLYSYVYQDGLRLLGARARGVAMLGVFLVSAVAHEYIFCFVLGFFYPVMLILFLVIGGMLNFMMHDQRTGPAWNVLMWTMLFLGQGIQVSLYCQEWYARRHCPLPQATFWGLVTPRSWSCHT

> <PDB ID(s) of Target Chain>


> <UniProt (SwissProt) Recommended Name of Target Chain>
Sterol O-acyltransferase 2

> <UniProt (SwissProt) Entry Name of Target Chain>
ACAT-2

> <UniProt (SwissProt) Primary ID of Target Chain>
O75908

> <UniProt (SwissProt) Secondary ID(s) of Target Chain>
F5H7W4 I6L9H9 Q4VB99 Q4VBA1 Q96TD4 Q9UNR2

> <UniProt (SwissProt) Alternative ID(s) of Target Chain>


> <UniProt (TrEMBL) Submitted Name of Target Chain>


> <UniProt (TrEMBL) Entry Name of Target Chain>


> <UniProt (TrEMBL) Primary ID of Target Chain>


> <UniProt (TrEMBL) Secondary ID(s) of Target Chain>


> <UniProt (TrEMBL) Alternative ID(s) of Target Chain>


$$$$

  Mrv0541 11241418062D          

 51 58  0  0  0  0            999 V2000
   20.4737  -10.6476    0.0000 C   0  0  0  0  0  0  0  0  0  0  0  0
   21.1864  -10.2306    0.0000 C   0  0  0  0  0  0  0  0  0  0  0  0
   21.8991  -10.6476    0.0000 C   0  0  1  0  0  0  0  0  0  0  0  0
   21.9002  -11.4734    0.0000 C   0  0  1  0  0  0  0  0  0  0  0  0
   22.6119  -11.8831    0.0000 C   0  0  0  0  0  0  0  0  0  0  0  0
   23.3272  -11.4716    0.0000 C   0  0  1  0  0  0  0  0  0  0  0  0
   22.6098  -10.2316    0.0000 C   0  0  2  0  0  0  0  0  0  0  0  0
   23.3218  -10.6482    0.0000 C   0  0  2  0  0  0  0  0  0  0  0  0
   24.0345  -10.2421    0.0000 O   0  0  0  0  0  0  0  0  0  0  0  0
   22.6106   -9.4090    0.0000 C   0  0  2  0  0  0  0  0  0  0  0  0
   21.1864  -11.8822    0.0000 C   0  0  1  0  0  0  0  0  0  0  0  0
   20.4737  -11.4734    0.0000 C   0  0  1  0  0  0  0  0  0  0  0  0
   19.7673  -11.8840    0.0000 O   0  0  0  0  0  0  0  0  0  0  0  0
   19.7674  -12.7050    0.0000 C   0  0  1  0  0  0  0  0  0  0  0  0
   20.4801  -13.1137    0.0000 O   0  0  0  0  0  0  0  0  0  0  0  0
   21.1927  -12.7014    0.0000 C   0  0  0  0  0  0  0  0  0  0  0  0
   23.3296   -9.0013    0.0000 C   0  0  0  0  0  0  0  0  0  0  0  0
   24.0400   -9.4194    0.0000 C   0  0  0  0  0  0  0  0  0  0  0  0
   24.7533   -9.0155    0.0000 C   0  0  0  0  0  0  0  0  0  0  0  0
   24.7625   -8.1918    0.0000 C   0  0  0  0  0  0  0  0  0  0  0  0
   24.0521   -7.7737    0.0000 O   0  0  0  0  0  0  0  0  0  0  0  0
   23.3325   -8.1793    0.0000 C   0  0  0  0  0  0  0  0  0  0  0  0
   22.6203   -7.7614    0.0000 O   0  0  0  0  0  0  0  0  0  0  0  0
   21.8973   -8.9929    0.0000 O   0  0  0  0  0  0  0  0  0  0  0  0
   23.3139   -9.8219    0.0000 C   0  0  0  0  0  0  0  0  0  0  0  0
   24.0433  -11.8827    0.0000 O   0  0  0  0  0  0  0  0  0  0  0  0
   21.8917   -9.8219    0.0000 C   0  0  0  0  0  0  0  0  0  0  0  0
   21.1786  -11.0564    0.0000 C   0  0  0  0  0  0  0  0  0  0  0  0
   24.7574  -11.4680    0.0000 C   0  0  0  0  0  0  0  0  0  0  0  0
   25.4736  -11.8792    0.0000 C   0  0  0  0  0  0  0  0  0  0  0  0
   24.7553  -10.6423    0.0000 O   0  0  0  0  0  0  0  0  0  0  0  0
   25.4736  -12.7049    0.0000 C   0  0  0  0  0  0  0  0  0  0  0  0
   26.1889  -13.1158    0.0000 C   0  0  0  0  0  0  0  0  0  0  0  0
   26.9041  -12.7011    0.0000 C   0  0  0  0  0  0  0  0  0  0  0  0
   26.8993  -11.8711    0.0000 C   0  0  0  0  0  0  0  0  0  0  0  0
   26.1834  -11.4638    0.0000 C   0  0  0  0  0  0  0  0  0  0  0  0
   25.4820   -7.7866    0.0000 C   0  0  0  0  0  0  0  0  0  0  0  0
   26.1934   -8.2082    0.0000 C   0  0  0  0  0  0  0  0  0  0  0  0
   26.9120   -7.8029    0.0000 N   0  0  0  0  0  0  0  0  0  0  0  0
   26.9205   -6.9763    0.0000 C   0  0  0  0  0  0  0  0  0  0  0  0
   26.2044   -6.5566    0.0000 C   0  0  0  0  0  0  0  0  0  0  0  0
   25.4887   -6.9642    0.0000 C   0  0  0  0  0  0  0  0  0  0  0  0
   19.0530  -13.1190    0.0000 C   0  0  0  0  0  0  0  0  0  0  0  0
   18.3402  -12.7042    0.0000 C   0  0  0  0  0  0  0  0  0  0  0  0
   17.6262  -13.1175    0.0000 C   0  0  0  0  0  0  0  0  0  0  0  0
   17.6270  -13.9442    0.0000 C   0  0  0  0  0  0  0  0  0  0  0  0
   18.3478  -14.3558    0.0000 C   0  0  0  0  0  0  0  0  0  0  0  0
   19.0589  -13.9401    0.0000 C   0  0  0  0  0  0  0  0  0  0  0  0
   27.6197  -13.1070    0.0000 C   0  0  0  0  0  0  0  0  0  0  0  0
   28.3365  -13.5171    0.0000 N   0  0  0  0  0  0  0  0  0  0  0  0
   19.7760  -14.3481    0.0000 C   0  0  0  0  0  0  0  0  0  0  0  0
 12  1  1  0  0  0  0
  1  2  1  0  0  0  0
  4 11  1  0  0  0  0
  3  2  1  0  0  0  0
  3  4  1  0  0  0  0
  7  3  1  1  0  0  0
  4  5  1  1  0  0  0
  6  5  1  0  0  0  0
  8  6  1  0  0  0  0
  7  8  1  0  0  0  0
  7 10  1  0  0  0  0
  8  9  1  0  0  0  0
  9 18  1  0  0  0  0
 10 17  1  0  0  0  0
 11 12  1  0  0  0  0
 11 16  1  0  0  0  0
 12 13  1  1  0  0  0
 14 13  1  0  0  0  0
 14 15  1  0  0  0  0
 15 16  1  0  0  0  0
 17 18  2  0  0  0  0
 17 22  1  0  0  0  0
 18 19  1  0  0  0  0
 19 20  2  0  0  0  0
 20 21  1  0  0  0  0
 21 22  1  0  0  0  0
 22 23  2  0  0  0  0
 10 24  1  1  0  0  0
  8 25  1  1  0  0  0
  6 26  1  1  0  0  0
  3 27  1  1  0  0  0
 11 28  1  1  0  0  0
 26 29  1  0  0  0  0
 29 30  1  0  0  0  0
 29 31  2  0  0  0  0
 30 32  2  0  0  0  0
 32 33  1  0  0  0  0
 33 34  2  0  0  0  0
 34 35  1  0  0  0  0
 35 36  2  0  0  0  0
 36 30  1  0  0  0  0
 37 38  2  0  0  0  0
 38 39  1  0  0  0  0
 39 40  2  0  0  0  0
 40 41  1  0  0  0  0
 41 42  2  0  0  0  0
 42 37  1  0  0  0  0
 20 37  1  0  0  0  0
 14 43  1  1  0  0  0
 43 44  2  0  0  0  0
 44 45  1  0  0  0  0
 45 46  2  0  0  0  0
 46 47  1  0  0  0  0
 47 48  2  0  0  0  0
 48 43  1  0  0  0  0
 49 50  3  0  0  0  0
 34 49  1  0  0  0  0
 48 51  1  0  0  0  0
M  END
> <From>
www.bindingDB.org

> <BindingDB Reactant_set_id>
51068414

> <Ligand InChI>
InChI=1S/C41H40N2O8/c1-23-8-5-6-10-27(23)38-47-22-40(3)30-19-32(49-36(45)25-13-11-24(20-42)12-14-25)41(4)35(39(30,2)16-15-31(40)50-38)34(44)33-29(51-41)18-28(48-37(33)46)26-9-7-17-43-21-26/h5-14,17-18,21,30-32,34-35,38,44H,15-16,19,22H2,1-4H3/t30-,31+,32+,34+,35-,38-,39+,40+,41-/m1/s1

> <Ligand InChI Key>
LSDMSWMTGQIHRK-KFSBURAESA-N

> <BindingDB MonomerID>
50436328

> <BindingDB Ligand Name>
CHEMBL2398804

> <Target Name>
Sterol O-acyltransferase 2

> <Target Source Organism According to Curator or DataSource>


> <Ki (nM)>


> <IC50 (nM)>
 12

> <Kd (nM)>


> <EC50 (nM)>


> <kon (M-1-s-1)>


> <koff (s-1)>


> <pH>


> <Temp (C)>


> <Curation/DataSource>
ChEMBL

> <Article DOI>
10.1016/j.bmcl.2013.04.075

> <BindingDB Entry DOI>
10.7270/Q2WD41Z9

> <PMID>
23711919

> <PubChem AID>


> <Patent Number>


> <Authors>
Ohtawa, M; Yamazaki, H; Ohte, S; Matsuda, D; Ohshiro, T; Rudel, LL; Omura, S; Tomoda, H; Nagamitsu, T

> <Institution>
Kitasato University

> <Link to Ligand in BindingDB>
http://www.bindingdb.org/bind/chemsearch/marvin/MolStructure.jsp?monomerid=50436328

> <Link to Target in BindingDB>
http://www.bindingdb.org/jsp/dbsearch/PrimarySearch_ki.jsp?energyterm=kJ/mole&tag=pol&polymerid=7773&target=Sterol+O-acyltransferase+2&column=ki&startPg=0&Increment=50&submit=Search

> <Link to Ligand-Target Pair in BindingDB>
http://www.bindingdb.org/jsp/dbsearch/PrimarySearch_ki.jsp?energyterm=kJ/mole&tag=r21&monomerid=50436328&enzyme=Sterol+O-acyltransferase+2&column=ki&startPg=0&Increment=50&submit=Search

> <Ligand HET ID in PDB>


> <PDB ID(s) for Ligand-Target Complex>


> <PubChem CID>
71682658

> <PubChem SID>
175448645

> <ChEBI ID of Ligand>


> <ChEMBL ID of Ligand>
CHEMBL2398804

> <DrugBank ID of Ligand>


> <IUPHAR_GRAC ID of Ligand>


> <KEGG ID of Ligand>


> <ZINC ID of Ligand>
ZINC96272241

> <Number of Protein Chains in Target (>1 implies a multichain complex)>
1

> <BindingDB Target Chain Sequence>
MEPGGARLRLQRTEGLGGERERQPCGDGNTETHRAPDLVQWTRHMEAVKAQLLEQAQGQLRELLDRAMREAIQSYPSQDKPLPPPPPGSLSRTQEPSLGKQKVFIIRKSLLDELMEVQHFRTIYHMFIAGLCVFIISTLAIDFIDEGRLLLEFDLLIFSFGQLPLALVTWVPMFLSTLLAPYQALRLWARGTWTQATGLGCALLAAHAVVLCALPVHVAVEHQLPPASRCVLVFEQVRFLMKSYSFLREAVPGTLRARRGEGIQAPSFSSYLYFLFCPTLIYRETYPRTPYVRWNYVAKNFAQALGCVLYACFILGRLCVPVFANMSREPFSTRALVLSILHATLPGIFMLLLIFFAFLHCWLNAFAEMLRFGDRMFYRDWWNSTSFSNYYRTWNVVVHDWLYSYVYQDGLRLLGARARGVAMLGVFLVSAVAHEYIFCFVLGFFYPVMLILFLVIGGMLNFMMHDQRTGPAWNVLMWTMLFLGQGIQVSLYCQEWYARRHCPLPQATFWGLVTPRSWSCHT

> <PDB ID(s) of Target Chain>


> <UniProt (SwissProt) Recommended Name of Target Chain>
Sterol O-acyltransferase 2

> <UniProt (SwissProt) Entry Name of Target Chain>
ACAT-2

> <UniProt (SwissProt) Primary ID of Target Chain>
O75908

> <UniProt (SwissProt) Secondary ID(s) of Target Chain>
F5H7W4 I6L9H9 Q4VB99 Q4VBA1 Q96TD4 Q9UNR2

> <UniProt (SwissProt) Alternative ID(s) of Target Chain>


> <UniProt (TrEMBL) Submitted Name of Target Chain>


> <UniProt (TrEMBL) Entry Name of Target Chain>


> <UniProt (TrEMBL) Primary ID of Target Chain>


> <UniProt (TrEMBL) Secondary ID(s) of Target Chain>


> <UniProt (TrEMBL) Alternative ID(s) of Target Chain>


$$$$
00038001.cdx
  Mrv0541 12012113462D          

 49 54  0  0  0  0            999 V2000
    0.9630  -10.1390    0.0000 C   0  0  0  0  0  0  0  0  0  0  0  0
    0.9630  -10.9640    0.0000 C   0  0  1  0  0  0  0  0  0  0  0  0
    1.6775  -11.3765    0.0000 C   0  0  0  0  0  0  0  0  0  0  0  0
    2.3920  -10.9640    0.0000 C   0  0  1  0  0  0  0  0  0  0  0  0
    2.3920  -10.1390    0.0000 C   0  0  2  0  0  0  0  0  0  0  0  0
    1.6775   -9.7265    0.0000 C   0  0  2  0  0  0  0  0  0  0  0  0
    1.6775   -8.9015    0.0000 C   0  0  0  0  0  0  0  0  0  0  0  0
    3.1065   -9.7265    0.0000 O   0  0  0  0  0  0  0  0  0  0  0  0
    0.2486  -11.3765    0.0000 C   0  0  3  0  0  0  0  0  0  0  0  0
   -0.4659  -10.9640    0.0000 C   0  0  0  0  0  0  0  0  0  0  0  0
    0.2486  -12.2015    0.0000 O   0  0  0  0  0  0  0  0  0  0  0  0
    3.1065  -11.3765    0.0000 O   0  0  0  0  0  0  0  0  0  0  0  0
    0.9630   -8.4890    0.0000 O   0  0  0  0  0  0  0  0  0  0  0  0
    2.3920   -8.4890    0.0000 C   0  0  0  0  0  0  0  0  0  0  0  0
    3.1065   -8.9015    0.0000 C   0  0  0  0  0  0  0  0  0  0  0  0
    3.8209   -8.4890    0.0000 C   0  0  0  0  0  0  0  0  0  0  0  0
    2.3920   -9.3140    0.0000 C   0  0  0  0  0  0  0  0  0  0  0  0
    3.8209   -7.6640    0.0000 C   0  0  0  0  0  0  0  0  0  0  0  0
    3.1065   -7.2515    0.0000 O   0  0  0  0  0  0  0  0  0  0  0  0
    2.3920   -7.6640    0.0000 C   0  0  0  0  0  0  0  0  0  0  0  0
    1.6775   -7.2515    0.0000 O   0  0  0  0  0  0  0  0  0  0  0  0
    4.5354   -7.2515    0.0000 C   0  0  0  0  0  0  0  0  0  0  0  0
    5.2499   -7.6640    0.0000 C   0  0  0  0  0  0  0  0  0  0  0  0
    5.9643   -7.2515    0.0000 N   0  0  0  0  0  0  0  0  0  0  0  0
    5.9643   -6.4265    0.0000 C   0  0  0  0  0  0  0  0  0  0  0  0
    4.5354   -6.4265    0.0000 C   0  0  0  0  0  0  0  0  0  0  0  0
   -1.1804  -11.3765    0.0000 O   0  0  0  0  0  0  0  0  0  0  0  0
    0.2486  -10.5515    0.0000 C   0  0  0  0  0  0  0  0  0  0  0  0
    5.2454   -6.0218    0.0000 C   0  0  0  0  0  0  0  0  0  0  0  0
   -1.8948  -10.9640    0.0000 C   0  0  0  0  0  0  0  0  0  0  0  0
   -2.6093  -11.3765    0.0000 C   0  0  0  0  0  0  0  0  0  0  0  0
   -1.8948  -10.1390    0.0000 O   0  0  0  0  0  0  0  0  0  0  0  0
   -3.3238  -10.9640    0.0000 C   0  0  0  0  0  0  0  0  0  0  0  0
   -4.0383  -11.3765    0.0000 C   0  0  0  0  0  0  0  0  0  0  0  0
   -4.0640  -12.2162    0.0000 C   0  0  0  0  0  0  0  0  0  0  0  0
   -3.3238  -12.6140    0.0000 C   0  0  0  0  0  0  0  0  0  0  0  0
   -2.6093  -12.2015    0.0000 C   0  0  0  0  0  0  0  0  0  0  0  0
    3.8209  -10.9640    0.0000 C   0  0  0  0  0  0  0  0  0  0  0  0
    4.5354  -11.3765    0.0000 C   0  0  0  0  0  0  0  0  0  0  0  0
    3.8209  -10.1390    0.0000 O   0  0  0  0  0  0  0  0  0  0  0  0
    4.5354  -12.2015    0.0000 C   0  0  0  0  0  0  0  0  0  0  0  0
    5.2499  -12.6140    0.0000 C   0  0  0  0  0  0  0  0  0  0  0  0
    5.9900  -12.2163    0.0000 C   0  0  0  0  0  0  0  0  0  0  0  0
    5.9643  -11.3765    0.0000 C   0  0  0  0  0  0  0  0  0  0  0  0
    5.2499  -10.9640    0.0000 C   0  0  0  0  0  0  0  0  0  0  0  0
   -4.7784  -12.6287    0.0000 C   0  0  0  0  0  0  0  0  0  0  0  0
   -5.4929  -13.0412    0.0000 N   0  0  0  0  0  0  0  0  0  0  0  0
    6.7045  -12.6287    0.0000 C   0  0  0  0  0  0  0  0  0  0  0  0
    7.4190  -13.0412    0.0000 N   0  0  0  0  0  0  0  0  0  0  0  0
  2  1  1  0  0  0  0
  2  3  1  0  0  0  0
  4  3  1  0  0  0  0
  5  4  1  0  0  0  0
  5  6  1  0  0  0  0
  6  1  1  1  0  0  0
  6  7  1  0  0  0  0
  5  8  1  0  0  0  0
  2  9  1  1  0  0  0
  9 10  1  4  0  0  0
  9 11  1  0  0  0  0
  4 12  1  1  0  0  0
  7 13  2  0  0  0  0
  7 14  1  0  0  0  0
 14 15  4  0  0  0  0
 15 16  4  0  0  0  0
  8 15  1  0  0  0  0
  5 17  1  1  0  0  0
 16 18  4  0  0  0  0
 18 19  4  0  0  0  0
 19 20  4  0  0  0  0
 20 14  4  0  0  0  0
 20 21  2  0  0  0  0
 18 22  1  0  0  0  0
 22 23  4  0  0  0  0
 23 24  4  0  0  0  0
 24 25  4  0  0  0  0
 26 22  4  0  0  0  0
 10 27  1  0  0  0  0
  9 28  1  0  0  0  0
 25 29  4  0  0  0  0
 29 26  4  0  0  0  0
 27 30  1  0  0  0  0
 30 31  1  0  0  0  0
 30 32  2  0  0  0  0
 31 33  4  0  0  0  0
 33 34  4  0  0  0  0
 34 35  4  0  0  0  0
 35 36  4  0  0  0  0
 36 37  4  0  0  0  0
 37 31  4  0  0  0  0
 12 38  1  0  0  0  0
 38 39  1  0  0  0  0
 38 40  2  0  0  0  0
 39 41  4  0  0  0  0
 41 42  4  0  0  0  0
 42 43  4  0  0  0  0
 43 44  4  0  0  0  0
 44 45  4  0  0  0  0
 45 39  4  0  0  0  0
 35 46  1  0  0  0  0
 43 48  1  0  0  0  0
 48 49  3  0  0  0  0
 46 47  3  0  0  0  0
M  END
> <From>
www.bindingDB.org

> <BindingDB Reactant_set_id>
765843

> <Ligand InChI>
InChI=1S/C37H29N3O9/c1-36(45,20-46-33(42)23-9-5-21(17-38)6-10-23)26-14-27-32(41)31-29(16-28(47-35(31)44)25-4-3-13-40-19-25)49-37(27,2)30(15-26)48-34(43)24-11-7-22(18-39)8-12-24/h3-13,16,19,26-27,30,45H,14-15,20H2,1-2H3/t26-,27-,30-,36?,37-/m0/s1

> <Ligand InChI Key>
WEOCJMZXRUXKAV-NSZDKMDOSA-N

> <BindingDB MonomerID>
383178

> <BindingDB Ligand Name>
US10278962, Compound 13

> <Target Name>
Sterol O-acyltransferase 2

> <Target Source Organism According to Curator or DataSource>


> <Ki (nM)>


> <IC50 (nM)>
 12.0

> <Kd (nM)>


> <EC50 (nM)>


> <kon (M-1-s-1)>


> <koff (s-1)>


> <pH>


> <Temp (C)>


> <Curation/DataSource>
US Patent

> <Article DOI>


> <BindingDB Entry DOI>
10.7270/Q2CF9SF8

> <PMID>


> <PubChem AID>
aid1798542

> <Patent Number>
US10278962

> <Authors>
Nan, F; Li, B; Zhan, Y; Zhang, X; Xiong, Y; Hu, X; Zhang, Y

> <Institution>
Shanghai Institute of Materia Medica, Chinese Academy of Sciences

> <Link to Ligand in BindingDB>
http://www.bindingdb.org/bind/chemsearch/marvin/MolStructure.jsp?monomerid=383178

> <Link to Target in BindingDB>
http://www.bindingdb.org/jsp/dbsearch/PrimarySearch_ki.jsp?energyterm=kJ/mole&tag=pol&polymerid=7773&target=Sterol+O-acyltransferase+2&column=ki&startPg=0&Increment=50&submit=Search

> <Link to Ligand-Target Pair in BindingDB>
http://www.bindingdb.org/jsp/dbsearch/PrimarySearch_ki.jsp?energyterm=kJ/mole&tag=r21&monomerid=383178&enzyme=Sterol+O-acyltransferase+2&column=ki&startPg=0&Increment=50&submit=Search

> <Ligand HET ID in PDB>


> <PDB ID(s) for Ligand-Target Complex>


> <PubChem CID>
134188305

> <PubChem SID>
404852473

> <ChEBI ID of Ligand>


> <ChEMBL ID of Ligand>


> <DrugBank ID of Ligand>


> <IUPHAR_GRAC ID of Ligand>


> <KEGG ID of Ligand>


> <ZINC ID of Ligand>


> <Number of Protein Chains in Target (>1 implies a multichain complex)>
1

> <BindingDB Target Chain Sequence>
MEPGGARLRLQRTEGLGGERERQPCGDGNTETHRAPDLVQWTRHMEAVKAQLLEQAQGQLRELLDRAMREAIQSYPSQDKPLPPPPPGSLSRTQEPSLGKQKVFIIRKSLLDELMEVQHFRTIYHMFIAGLCVFIISTLAIDFIDEGRLLLEFDLLIFSFGQLPLALVTWVPMFLSTLLAPYQALRLWARGTWTQATGLGCALLAAHAVVLCALPVHVAVEHQLPPASRCVLVFEQVRFLMKSYSFLREAVPGTLRARRGEGIQAPSFSSYLYFLFCPTLIYRETYPRTPYVRWNYVAKNFAQALGCVLYACFILGRLCVPVFANMSREPFSTRALVLSILHATLPGIFMLLLIFFAFLHCWLNAFAEMLRFGDRMFYRDWWNSTSFSNYYRTWNVVVHDWLYSYVYQDGLRLLGARARGVAMLGVFLVSAVAHEYIFCFVLGFFYPVMLILFLVIGGMLNFMMHDQRTGPAWNVLMWTMLFLGQGIQVSLYCQEWYARRHCPLPQATFWGLVTPRSWSCHT

> <PDB ID(s) of Target Chain>


> <UniProt (SwissProt) Recommended Name of Target Chain>
Sterol O-acyltransferase 2

> <UniProt (SwissProt) Entry Name of Target Chain>
ACAT-2

> <UniProt (SwissProt) Primary ID of Target Chain>
O75908

> <UniProt (SwissProt) Secondary ID(s) of Target Chain>
F5H7W4 I6L9H9 Q4VB99 Q4VBA1 Q96TD4 Q9UNR2

> <UniProt (SwissProt) Alternative ID(s) of Target Chain>


> <UniProt (TrEMBL) Submitted Name of Target Chain>


> <UniProt (TrEMBL) Entry Name of Target Chain>


> <UniProt (TrEMBL) Primary ID of Target Chain>


> <UniProt (TrEMBL) Secondary ID(s) of Target Chain>


> <UniProt (TrEMBL) Alternative ID(s) of Target Chain>


$$$$

  Mrv0541 11241418062D          

 49 56  0  0  0  0            999 V2000
    9.5377  -12.0316    0.0000 C   0  0  0  0  0  0  0  0  0  0  0  0
   10.2504  -11.6145    0.0000 C   0  0  0  0  0  0  0  0  0  0  0  0
   10.9630  -12.0316    0.0000 C   0  0  1  0  0  0  0  0  0  0  0  0
   10.9641  -12.8573    0.0000 C   0  0  1  0  0  0  0  0  0  0  0  0
   11.6757  -13.2670    0.0000 C   0  0  0  0  0  0  0  0  0  0  0  0
   12.3909  -12.8555    0.0000 C   0  0  1  0  0  0  0  0  0  0  0  0
   11.6736  -11.6155    0.0000 C   0  0  2  0  0  0  0  0  0  0  0  0
   12.3856  -12.0320    0.0000 C   0  0  2  0  0  0  0  0  0  0  0  0
   13.0983  -11.6260    0.0000 O   0  0  0  0  0  0  0  0  0  0  0  0
   11.6744  -10.7930    0.0000 C   0  0  2  0  0  0  0  0  0  0  0  0
   10.2504  -13.2660    0.0000 C   0  0  1  0  0  0  0  0  0  0  0  0
    9.5377  -12.8573    0.0000 C   0  0  1  0  0  0  0  0  0  0  0  0
    8.8313  -13.2678    0.0000 O   0  0  0  0  0  0  0  0  0  0  0  0
    8.8314  -14.0888    0.0000 C   0  0  1  0  0  0  0  0  0  0  0  0
    9.5441  -14.4975    0.0000 O   0  0  0  0  0  0  0  0  0  0  0  0
   10.2567  -14.0853    0.0000 C   0  0  0  0  0  0  0  0  0  0  0  0
   12.3934  -10.3853    0.0000 C   0  0  0  0  0  0  0  0  0  0  0  0
   13.1037  -10.8034    0.0000 C   0  0  0  0  0  0  0  0  0  0  0  0
   13.8170  -10.3995    0.0000 C   0  0  0  0  0  0  0  0  0  0  0  0
   13.8262   -9.5759    0.0000 C   0  0  0  0  0  0  0  0  0  0  0  0
   13.1159   -9.1578    0.0000 O   0  0  0  0  0  0  0  0  0  0  0  0
   12.3963   -9.5633    0.0000 C   0  0  0  0  0  0  0  0  0  0  0  0
   11.6841   -9.1455    0.0000 O   0  0  0  0  0  0  0  0  0  0  0  0
   10.9612  -10.3770    0.0000 O   0  0  0  0  0  0  0  0  0  0  0  0
   12.3777  -11.2059    0.0000 C   0  0  0  0  0  0  0  0  0  0  0  0
   13.1071  -13.2666    0.0000 O   0  0  0  0  0  0  0  0  0  0  0  0
   10.9556  -11.2059    0.0000 C   0  0  0  0  0  0  0  0  0  0  0  0
   10.2425  -12.4403    0.0000 C   0  0  0  0  0  0  0  0  0  0  0  0
   13.8212  -12.8519    0.0000 C   0  0  0  0  0  0  0  0  0  0  0  0
   14.5373  -13.2630    0.0000 C   0  0  0  0  0  0  0  0  0  0  0  0
   13.8190  -12.0262    0.0000 O   0  0  0  0  0  0  0  0  0  0  0  0
   14.5373  -14.0886    0.0000 C   0  0  0  0  0  0  0  0  0  0  0  0
   15.2526  -14.4997    0.0000 C   0  0  0  0  0  0  0  0  0  0  0  0
   15.9677  -14.0850    0.0000 C   0  0  0  0  0  0  0  0  0  0  0  0
   15.9629  -13.2549    0.0000 C   0  0  0  0  0  0  0  0  0  0  0  0
   15.2470  -12.8477    0.0000 C   0  0  0  0  0  0  0  0  0  0  0  0
   14.5457   -9.1707    0.0000 C   0  0  0  0  0  0  0  0  0  0  0  0
   15.2570   -9.5923    0.0000 C   0  0  0  0  0  0  0  0  0  0  0  0
   15.9756   -9.1871    0.0000 N   0  0  0  0  0  0  0  0  0  0  0  0
   15.9840   -8.3604    0.0000 C   0  0  0  0  0  0  0  0  0  0  0  0
   15.2680   -7.9408    0.0000 C   0  0  0  0  0  0  0  0  0  0  0  0
   14.5523   -8.3484    0.0000 C   0  0  0  0  0  0  0  0  0  0  0  0
   15.2543  -15.3254    0.0000 F   0  0  0  0  0  0  0  0  0  0  0  0
    8.1176  -14.5024    0.0000 C   0  0  0  0  0  0  0  0  0  0  0  0
    7.4031  -14.0899    0.0000 C   0  0  0  0  0  0  0  0  0  0  0  0
    6.6886  -14.5024    0.0000 C   0  0  0  0  0  0  0  0  0  0  0  0
    6.6886  -15.3274    0.0000 C   0  0  0  0  0  0  0  0  0  0  0  0
    7.4031  -15.7399    0.0000 C   0  0  0  0  0  0  0  0  0  0  0  0
    8.1176  -15.3274    0.0000 C   0  0  0  0  0  0  0  0  0  0  0  0
 12  1  1  0  0  0  0
  1  2  1  0  0  0  0
  4 11  1  0  0  0  0
  3  2  1  0  0  0  0
  3  4  1  0  0  0  0
  7  3  1  1  0  0  0
  4  5  1  1  0  0  0
  6  5  1  0  0  0  0
  8  6  1  0  0  0  0
  7  8  1  0  0  0  0
  7 10  1  0  0  0  0
  8  9  1  0  0  0  0
  9 18  1  0  0  0  0
 10 17  1  0  0  0  0
 11 12  1  0  0  0  0
 11 16  1  0  0  0  0
 12 13  1  1  0  0  0
 14 13  1  0  0  0  0
 14 15  1  0  0  0  0
 15 16  1  0  0  0  0
 17 18  2  0  0  0  0
 17 22  1  0  0  0  0
 18 19  1  0  0  0  0
 19 20  2  0  0  0  0
 20 21  1  0  0  0  0
 21 22  1  0  0  0  0
 22 23  2  0  0  0  0
 10 24  1  1  0  0  0
  8 25  1  1  0  0  0
  6 26  1  1  0  0  0
  3 27  1  1  0  0  0
 11 28  1  1  0  0  0
 26 29  1  0  0  0  0
 29 30  1  0  0  0  0
 29 31  2  0  0  0  0
 30 32  2  0  0  0  0
 32 33  1  0  0  0  0
 33 34  2  0  0  0  0
 34 35  1  0  0  0  0
 35 36  2  0  0  0  0
 36 30  1  0  0  0  0
 37 38  2  0  0  0  0
 38 39  1  0  0  0  0
 39 40  2  0  0  0  0
 40 41  1  0  0  0  0
 41 42  2  0  0  0  0
 42 37  1  0  0  0  0
 20 37  1  0  0  0  0
 33 43  1  0  0  0  0
 14 44  1  1  0  0  0
 49 44  2  0  0  0  0
 45 44  1  0  0  0  0
 45 46  2  0  0  0  0
 46 47  1  0  0  0  0
 47 48  2  0  0  0  0
 48 49  1  0  0  0  0
M  END
> <From>
www.bindingDB.org

> <BindingDB Reactant_set_id>
51068427

> <Ligand InChI>
InChI=1S/C39H38FNO8/c1-37-15-14-29-38(2,21-45-36(48-29)22-9-5-4-6-10-22)28(37)19-30(47-34(43)23-11-7-13-25(40)17-23)39(3)33(37)32(42)31-27(49-39)18-26(46-35(31)44)24-12-8-16-41-20-24/h4-13,16-18,20,28-30,32-33,36,42H,14-15,19,21H2,1-3H3/t28-,29+,30+,32+,33-,36-,37+,38+,39-/m1/s1

> <Ligand InChI Key>
RLZGQRJGUGQLGV-MKSFZIRSSA-N

> <BindingDB MonomerID>
50436340

> <BindingDB Ligand Name>
CHEMBL2398819

> <Target Name>
Sterol O-acyltransferase 2

> <Target Source Organism According to Curator or DataSource>


> <Ki (nM)>


> <IC50 (nM)>
 13

> <Kd (nM)>


> <EC50 (nM)>


> <kon (M-1-s-1)>


> <koff (s-1)>


> <pH>


> <Temp (C)>


> <Curation/DataSource>
ChEMBL

> <Article DOI>
10.1016/j.bmcl.2013.04.075

> <BindingDB Entry DOI>
10.7270/Q2WD41Z9

> <PMID>
23711919

> <PubChem AID>


> <Patent Number>


> <Authors>
Ohtawa, M; Yamazaki, H; Ohte, S; Matsuda, D; Ohshiro, T; Rudel, LL; Omura, S; Tomoda, H; Nagamitsu, T

> <Institution>
Kitasato University

> <Link to Ligand in BindingDB>
http://www.bindingdb.org/bind/chemsearch/marvin/MolStructure.jsp?monomerid=50436340

> <Link to Target in BindingDB>
http://www.bindingdb.org/jsp/dbsearch/PrimarySearch_ki.jsp?energyterm=kJ/mole&tag=pol&polymerid=7773&target=Sterol+O-acyltransferase+2&column=ki&startPg=0&Increment=50&submit=Search

> <Link to Ligand-Target Pair in BindingDB>
http://www.bindingdb.org/jsp/dbsearch/PrimarySearch_ki.jsp?energyterm=kJ/mole&tag=r21&monomerid=50436340&enzyme=Sterol+O-acyltransferase+2&column=ki&startPg=0&Increment=50&submit=Search

> <Ligand HET ID in PDB>


> <PDB ID(s) for Ligand-Target Complex>


> <PubChem CID>
71682203

> <PubChem SID>
175448657

> <ChEBI ID of Ligand>


> <ChEMBL ID of Ligand>
CHEMBL2398819

> <DrugBank ID of Ligand>


> <IUPHAR_GRAC ID of Ligand>


> <KEGG ID of Ligand>


> <ZINC ID of Ligand>
ZINC96272253

> <Number of Protein Chains in Target (>1 implies a multichain complex)>
1

> <BindingDB Target Chain Sequence>
MEPGGARLRLQRTEGLGGERERQPCGDGNTETHRAPDLVQWTRHMEAVKAQLLEQAQGQLRELLDRAMREAIQSYPSQDKPLPPPPPGSLSRTQEPSLGKQKVFIIRKSLLDELMEVQHFRTIYHMFIAGLCVFIISTLAIDFIDEGRLLLEFDLLIFSFGQLPLALVTWVPMFLSTLLAPYQALRLWARGTWTQATGLGCALLAAHAVVLCALPVHVAVEHQLPPASRCVLVFEQVRFLMKSYSFLREAVPGTLRARRGEGIQAPSFSSYLYFLFCPTLIYRETYPRTPYVRWNYVAKNFAQALGCVLYACFILGRLCVPVFANMSREPFSTRALVLSILHATLPGIFMLLLIFFAFLHCWLNAFAEMLRFGDRMFYRDWWNSTSFSNYYRTWNVVVHDWLYSYVYQDGLRLLGARARGVAMLGVFLVSAVAHEYIFCFVLGFFYPVMLILFLVIGGMLNFMMHDQRTGPAWNVLMWTMLFLGQGIQVSLYCQEWYARRHCPLPQATFWGLVTPRSWSCHT

> <PDB ID(s) of Target Chain>


> <UniProt (SwissProt) Recommended Name of Target Chain>
Sterol O-acyltransferase 2

> <UniProt (SwissProt) Entry Name of Target Chain>
ACAT-2

> <UniProt (SwissProt) Primary ID of Target Chain>
O75908

> <UniProt (SwissProt) Secondary ID(s) of Target Chain>
F5H7W4 I6L9H9 Q4VB99 Q4VBA1 Q96TD4 Q9UNR2

> <UniProt (SwissProt) Alternative ID(s) of Target Chain>


> <UniProt (TrEMBL) Submitted Name of Target Chain>


> <UniProt (TrEMBL) Entry Name of Target Chain>


> <UniProt (TrEMBL) Primary ID of Target Chain>


> <UniProt (TrEMBL) Secondary ID(s) of Target Chain>


> <UniProt (TrEMBL) Alternative ID(s) of Target Chain>


$$$$

  Mrv0541 11241418062D          

 50 57  0  0  0  0            999 V2000
   17.0838   -3.3984    0.0000 C   0  0  0  0  0  0  0  0  0  0  0  0
   17.7963   -2.9815    0.0000 C   0  0  0  0  0  0  0  0  0  0  0  0
   18.5088   -3.3984    0.0000 C   0  0  1  0  0  0  0  0  0  0  0  0
   18.5100   -4.2240    0.0000 C   0  0  1  0  0  0  0  0  0  0  0  0
   19.2215   -4.6336    0.0000 C   0  0  0  0  0  0  0  0  0  0  0  0
   19.9366   -4.2222    0.0000 C   0  0  1  0  0  0  0  0  0  0  0  0
   19.2194   -2.9824    0.0000 C   0  0  2  0  0  0  0  0  0  0  0  0
   19.9312   -3.3989    0.0000 C   0  0  2  0  0  0  0  0  0  0  0  0
   20.6438   -2.9929    0.0000 O   0  0  0  0  0  0  0  0  0  0  0  0
   19.2202   -2.1600    0.0000 C   0  0  2  0  0  0  0  0  0  0  0  0
   17.7963   -4.6327    0.0000 C   0  0  1  0  0  0  0  0  0  0  0  0
   17.0838   -4.2240    0.0000 C   0  0  1  0  0  0  0  0  0  0  0  0
   16.3775   -4.6345    0.0000 O   0  0  0  0  0  0  0  0  0  0  0  0
   16.3776   -5.4553    0.0000 C   0  0  1  0  0  0  0  0  0  0  0  0
   17.0902   -5.8640    0.0000 O   0  0  0  0  0  0  0  0  0  0  0  0
   17.8026   -5.4518    0.0000 C   0  0  0  0  0  0  0  0  0  0  0  0
   19.9391   -1.7524    0.0000 C   0  0  0  0  0  0  0  0  0  0  0  0
   20.6493   -2.1704    0.0000 C   0  0  0  0  0  0  0  0  0  0  0  0
   21.3625   -1.7665    0.0000 C   0  0  0  0  0  0  0  0  0  0  0  0
   21.3717   -0.9430    0.0000 C   0  0  0  0  0  0  0  0  0  0  0  0
   20.6614   -0.5251    0.0000 O   0  0  0  0  0  0  0  0  0  0  0  0
   19.9420   -0.9305    0.0000 C   0  0  0  0  0  0  0  0  0  0  0  0
   19.2299   -0.5127    0.0000 O   0  0  0  0  0  0  0  0  0  0  0  0
   18.5070   -1.7440    0.0000 O   0  0  0  0  0  0  0  0  0  0  0  0
   19.9234   -2.5728    0.0000 C   0  0  0  0  0  0  0  0  0  0  0  0
   20.6526   -4.6332    0.0000 O   0  0  0  0  0  0  0  0  0  0  0  0
   18.5015   -2.5728    0.0000 C   0  0  0  0  0  0  0  0  0  0  0  0
   17.7885   -3.8071    0.0000 C   0  0  0  0  0  0  0  0  0  0  0  0
   21.3666   -4.2186    0.0000 C   0  0  0  0  0  0  0  0  0  0  0  0
   22.0826   -4.6296    0.0000 C   0  0  0  0  0  0  0  0  0  0  0  0
   21.3645   -3.3930    0.0000 O   0  0  0  0  0  0  0  0  0  0  0  0
   22.0826   -5.4552    0.0000 C   0  0  0  0  0  0  0  0  0  0  0  0
   22.7978   -5.8661    0.0000 C   0  0  0  0  0  0  0  0  0  0  0  0
   23.5129   -5.4515    0.0000 C   0  0  0  0  0  0  0  0  0  0  0  0
   23.5081   -4.6216    0.0000 C   0  0  0  0  0  0  0  0  0  0  0  0
   22.7923   -4.2143    0.0000 C   0  0  0  0  0  0  0  0  0  0  0  0
   22.0910   -0.5379    0.0000 C   0  0  0  0  0  0  0  0  0  0  0  0
   22.8023   -0.9594    0.0000 C   0  0  0  0  0  0  0  0  0  0  0  0
   23.5207   -0.5543    0.0000 N   0  0  0  0  0  0  0  0  0  0  0  0
   23.5292    0.2782    0.0000 C   0  0  0  0  0  0  0  0  0  0  0  0
   22.8133    0.6926    0.0000 C   0  0  0  0  0  0  0  0  0  0  0  0
   22.0977    0.2911    0.0000 C   0  0  0  0  0  0  0  0  0  0  0  0
   24.2294   -5.8616    0.0000 O   0  0  0  0  0  0  0  0  0  0  0  0
   24.2326   -6.6871    0.0000 C   0  0  0  0  0  0  0  0  0  0  0  0
   15.6637   -5.8689    0.0000 C   0  0  0  0  0  0  0  0  0  0  0  0
   14.9493   -5.4564    0.0000 C   0  0  0  0  0  0  0  0  0  0  0  0
   14.2348   -5.8689    0.0000 C   0  0  0  0  0  0  0  0  0  0  0  0
   14.2348   -6.6939    0.0000 C   0  0  0  0  0  0  0  0  0  0  0  0
   14.9493   -7.1064    0.0000 C   0  0  0  0  0  0  0  0  0  0  0  0
   15.6637   -6.6939    0.0000 C   0  0  0  0  0  0  0  0  0  0  0  0
 12  1  1  0  0  0  0
  1  2  1  0  0  0  0
  4 11  1  0  0  0  0
  3  2  1  0  0  0  0
  3  4  1  0  0  0  0
  7  3  1  1  0  0  0
  4  5  1  1  0  0  0
  6  5  1  0  0  0  0
  8  6  1  0  0  0  0
  7  8  1  0  0  0  0
  7 10  1  0  0  0  0
  8  9  1  0  0  0  0
  9 18  1  0  0  0  0
 10 17  1  0  0  0  0
 11 12  1  0  0  0  0
 11 16  1  0  0  0  0
 12 13  1  1  0  0  0
 14 13  1  0  0  0  0
 14 15  1  0  0  0  0
 15 16  1  0  0  0  0
 17 18  2  0  0  0  0
 17 22  1  0  0  0  0
 18 19  1  0  0  0  0
 19 20  2  0  0  0  0
 20 21  1  0  0  0  0
 21 22  1  0  0  0  0
 22 23  2  0  0  0  0
 10 24  1  1  0  0  0
  8 25  1  1  0  0  0
  6 26  1  1  0  0  0
  3 27  1  1  0  0  0
 11 28  1  1  0  0  0
 26 29  1  0  0  0  0
 29 30  1  0  0  0  0
 29 31  2  0  0  0  0
 30 32  2  0  0  0  0
 32 33  1  0  0  0  0
 33 34  2  0  0  0  0
 34 35  1  0  0  0  0
 35 36  2  0  0  0  0
 36 30  1  0  0  0  0
 37 38  2  0  0  0  0
 38 39  1  0  0  0  0
 39 40  2  0  0  0  0
 40 41  1  0  0  0  0
 41 42  2  0  0  0  0
 42 37  1  0  0  0  0
 20 37  1  0  0  0  0
 34 43  1  0  0  0  0
 43 44  1  0  0  0  0
 14 45  1  1  0  0  0
 50 45  2  0  0  0  0
 46 45  1  0  0  0  0
 46 47  2  0  0  0  0
 47 48  1  0  0  0  0
 48 49  2  0  0  0  0
 49 50  1  0  0  0  0
M  END
> <From>
www.bindingDB.org

> <BindingDB Reactant_set_id>
51068426

> <Ligand InChI>
InChI=1S/C40H41NO9/c1-38-17-16-30-39(2,22-46-37(49-30)24-9-6-5-7-10-24)29(38)20-31(48-35(43)23-12-14-26(45-4)15-13-23)40(3)34(38)33(42)32-28(50-40)19-27(47-36(32)44)25-11-8-18-41-21-25/h5-15,18-19,21,29-31,33-34,37,42H,16-17,20,22H2,1-4H3/t29-,30+,31+,33+,34-,37-,38+,39+,40-/m1/s1

> <Ligand InChI Key>
XIAXCKTUNUGJKS-WVGFPPCDSA-N

> <BindingDB MonomerID>
50436339

> <BindingDB Ligand Name>
CHEMBL2396678

> <Target Name>
Sterol O-acyltransferase 2

> <Target Source Organism According to Curator or DataSource>


> <Ki (nM)>


> <IC50 (nM)>
 14

> <Kd (nM)>


> <EC50 (nM)>


> <kon (M-1-s-1)>


> <koff (s-1)>


> <pH>


> <Temp (C)>


> <Curation/DataSource>
ChEMBL

> <Article DOI>
10.1016/j.bmcl.2013.04.075

> <BindingDB Entry DOI>
10.7270/Q2WD41Z9

> <PMID>
23711919

> <PubChem AID>


> <Patent Number>


> <Authors>
Ohtawa, M; Yamazaki, H; Ohte, S; Matsuda, D; Ohshiro, T; Rudel, LL; Omura, S; Tomoda, H; Nagamitsu, T

> <Institution>
Kitasato University

> <Link to Ligand in BindingDB>
http://www.bindingdb.org/bind/chemsearch/marvin/MolStructure.jsp?monomerid=50436339

> <Link to Target in BindingDB>
http://www.bindingdb.org/jsp/dbsearch/PrimarySearch_ki.jsp?energyterm=kJ/mole&tag=pol&polymerid=7773&target=Sterol+O-acyltransferase+2&column=ki&startPg=0&Increment=50&submit=Search

> <Link to Ligand-Target Pair in BindingDB>
http://www.bindingdb.org/jsp/dbsearch/PrimarySearch_ki.jsp?energyterm=kJ/mole&tag=r21&monomerid=50436339&enzyme=Sterol+O-acyltransferase+2&column=ki&startPg=0&Increment=50&submit=Search

> <Ligand HET ID in PDB>


> <PDB ID(s) for Ligand-Target Complex>


> <PubChem CID>
71682350

> <PubChem SID>
175448656

> <ChEBI ID of Ligand>


> <ChEMBL ID of Ligand>
CHEMBL2396678

> <DrugBank ID of Ligand>


> <IUPHAR_GRAC ID of Ligand>


> <KEGG ID of Ligand>


> <ZINC ID of Ligand>
ZINC96272252

> <Number of Protein Chains in Target (>1 implies a multichain complex)>
1

> <BindingDB Target Chain Sequence>
MEPGGARLRLQRTEGLGGERERQPCGDGNTETHRAPDLVQWTRHMEAVKAQLLEQAQGQLRELLDRAMREAIQSYPSQDKPLPPPPPGSLSRTQEPSLGKQKVFIIRKSLLDELMEVQHFRTIYHMFIAGLCVFIISTLAIDFIDEGRLLLEFDLLIFSFGQLPLALVTWVPMFLSTLLAPYQALRLWARGTWTQATGLGCALLAAHAVVLCALPVHVAVEHQLPPASRCVLVFEQVRFLMKSYSFLREAVPGTLRARRGEGIQAPSFSSYLYFLFCPTLIYRETYPRTPYVRWNYVAKNFAQALGCVLYACFILGRLCVPVFANMSREPFSTRALVLSILHATLPGIFMLLLIFFAFLHCWLNAFAEMLRFGDRMFYRDWWNSTSFSNYYRTWNVVVHDWLYSYVYQDGLRLLGARARGVAMLGVFLVSAVAHEYIFCFVLGFFYPVMLILFLVIGGMLNFMMHDQRTGPAWNVLMWTMLFLGQGIQVSLYCQEWYARRHCPLPQATFWGLVTPRSWSCHT

> <PDB ID(s) of Target Chain>


> <UniProt (SwissProt) Recommended Name of Target Chain>
Sterol O-acyltransferase 2

> <UniProt (SwissProt) Entry Name of Target Chain>
ACAT-2

> <UniProt (SwissProt) Primary ID of Target Chain>
O75908

> <UniProt (SwissProt) Secondary ID(s) of Target Chain>
F5H7W4 I6L9H9 Q4VB99 Q4VBA1 Q96TD4 Q9UNR2

> <UniProt (SwissProt) Alternative ID(s) of Target Chain>


> <UniProt (TrEMBL) Submitted Name of Target Chain>


> <UniProt (TrEMBL) Entry Name of Target Chain>


> <UniProt (TrEMBL) Primary ID of Target Chain>


> <UniProt (TrEMBL) Secondary ID(s) of Target Chain>


> <UniProt (TrEMBL) Alternative ID(s) of Target Chain>


$$$$

  Mrv0541 11241417312D          

 50 55  0  0  0  0            999 V2000
   26.7335  -28.1252    0.0000 C   0  0  0  0  0  0  0  0  0  0  0  0
   26.3251  -27.4126    0.0000 C   0  0  1  0  0  0  0  0  0  0  0  0
   25.9123  -28.1226    0.0000 C   0  0  0  0  0  0  0  0  0  0  0  0
   25.6168  -26.1794    0.0000 C   0  0  0  0  0  0  0  0  0  0  0  0
   25.6168  -27.0044    0.0000 C   0  0  2  0  0  0  0  0  0  0  0  0
   26.3289  -25.7627    0.0000 C   0  0  0  0  0  0  0  0  0  0  0  0
   27.0409  -26.1794    0.0000 C   0  0  1  0  0  0  0  0  0  0  0  0
   27.0419  -27.0044    0.0000 C   0  0  1  0  0  0  0  0  0  0  0  0
   27.7530  -27.4137    0.0000 C   0  0  0  0  0  0  0  0  0  0  0  0
   28.4675  -27.0026    0.0000 C   0  0  1  0  0  0  0  0  0  0  0  0
   27.7508  -25.7636    0.0000 C   0  0  2  0  0  0  0  0  0  0  0  0
   28.4684  -26.1782    0.0000 C   0  0  2  0  0  0  0  0  0  0  0  0
   29.1822  -25.7664    0.0000 O   0  0  0  0  0  0  0  0  0  0  0  0
   27.7471  -24.9373    0.0000 C   0  0  2  0  0  0  0  0  0  0  0  0
   28.4672  -24.5238    0.0000 C   0  0  0  0  0  0  0  0  0  0  0  0
   29.1898  -24.9374    0.0000 C   0  0  0  0  0  0  0  0  0  0  0  0
   29.9054  -24.5208    0.0000 C   0  0  0  0  0  0  0  0  0  0  0  0
   29.9045  -23.6888    0.0000 C   0  0  0  0  0  0  0  0  0  0  0  0
   29.1820  -23.2751    0.0000 O   0  0  0  0  0  0  0  0  0  0  0  0
   28.4602  -23.6934    0.0000 C   0  0  0  0  0  0  0  0  0  0  0  0
   30.6172  -23.2772    0.0000 C   0  0  0  0  0  0  0  0  0  0  0  0
   31.3330  -23.6897    0.0000 C   0  0  0  0  0  0  0  0  0  0  0  0
   32.0459  -23.2763    0.0000 N   0  0  0  0  0  0  0  0  0  0  0  0
   32.0445  -22.4503    0.0000 C   0  0  0  0  0  0  0  0  0  0  0  0
   31.3241  -22.0439    0.0000 C   0  0  0  0  0  0  0  0  0  0  0  0
   30.6140  -22.4555    0.0000 C   0  0  0  0  0  0  0  0  0  0  0  0
   29.1815  -27.4160    0.0000 O   0  0  0  0  0  0  0  0  0  0  0  0
   29.8965  -27.0044    0.0000 C   0  0  0  0  0  0  0  0  0  0  0  0
   30.6104  -27.4178    0.0000 C   0  0  0  0  0  0  0  0  0  0  0  0
   29.8976  -26.1794    0.0000 O   0  0  0  0  0  0  0  0  0  0  0  0
   30.6047  -28.2429    0.0000 C   0  0  0  0  0  0  0  0  0  0  0  0
   31.3178  -28.6562    0.0000 C   0  0  0  0  0  0  0  0  0  0  0  0
   32.0338  -28.2446    0.0000 C   0  0  0  0  0  0  0  0  0  0  0  0
   32.0322  -27.4154    0.0000 C   0  0  0  0  0  0  0  0  0  0  0  0
   31.3185  -27.0057    0.0000 C   0  0  0  0  0  0  0  0  0  0  0  0
   32.7477  -28.6533    0.0000 C   0  0  0  0  0  0  0  0  0  0  0  0
   33.4621  -29.0657    0.0000 N   0  0  0  0  0  0  0  0  0  0  0  0
   27.7436  -23.2845    0.0000 O   0  0  0  0  0  0  0  0  0  0  0  0
   27.0322  -24.5256    0.0000 O   0  0  0  0  0  0  0  0  0  0  0  0
   27.0336  -25.3544    0.0000 C   0  0  0  0  0  0  0  0  0  0  0  0
   28.4627  -25.3502    0.0000 C   0  0  0  0  0  0  0  0  0  0  0  0
   24.9030  -27.4179    0.0000 O   0  0  0  0  0  0  0  0  0  0  0  0
   24.1879  -27.0064    0.0000 C   0  0  0  0  0  0  0  0  0  0  0  0
   23.4763  -27.4199    0.0000 C   0  0  0  0  0  0  0  0  0  0  0  0
   24.1867  -26.1814    0.0000 O   0  0  0  0  0  0  0  0  0  0  0  0
   25.0873  -28.1199    0.0000 O   0  0  0  0  0  0  0  0  0  0  0  0
   24.6725  -28.8331    0.0000 C   0  0  0  0  0  0  0  0  0  0  0  0
   23.8475  -28.8305    0.0000 O   0  0  0  0  0  0  0  0  0  0  0  0
   25.0828  -29.5489    0.0000 C   0  0  0  0  0  0  0  0  0  0  0  0
   25.9077  -29.5515    0.0000 C   0  0  0  0  0  0  0  0  0  0  0  0
  2  1  1  1  0  0  0
  2  3  1  6  0  0  0
  5  4  1  0  0  0  0
  4  6  1  0  0  0  0
  2  5  1  0  0  0  0
  8  2  1  0  0  0  0
  7  6  1  0  0  0  0
  7  8  1  0  0  0  0
 11  7  1  1  0  0  0
  8  9  1  1  0  0  0
 10  9  1  0  0  0  0
 12 10  1  0  0  0  0
 11 12  1  0  0  0  0
 11 14  1  0  0  0  0
 12 13  1  0  0  0  0
 13 16  1  0  0  0  0
 14 15  1  0  0  0  0
 15 16  2  0  0  0  0
 15 20  1  0  0  0  0
 16 17  1  0  0  0  0
 17 18  2  0  0  0  0
 18 19  1  0  0  0  0
 19 20  1  0  0  0  0
 21 22  2  0  0  0  0
 22 23  1  0  0  0  0
 23 24  2  0  0  0  0
 24 25  1  0  0  0  0
 25 26  2  0  0  0  0
 26 21  1  0  0  0  0
 18 21  1  0  0  0  0
 10 27  1  1  0  0  0
 27 28  1  0  0  0  0
 28 29  1  0  0  0  0
 28 30  2  0  0  0  0
 29 31  2  0  0  0  0
 31 32  1  0  0  0  0
 32 33  2  0  0  0  0
 33 34  1  0  0  0  0
 34 35  2  0  0  0  0
 35 29  1  0  0  0  0
 36 37  3  0  0  0  0
 33 36  1  0  0  0  0
 20 38  2  0  0  0  0
 14 39  1  1  0  0  0
  7 40  1  1  0  0  0
 12 41  1  1  0  0  0
  5 42  1  1  0  0  0
 42 43  1  0  0  0  0
 43 44  1  0  0  0  0
 43 45  2  0  0  0  0
  3 46  1  0  0  0  0
 46 47  1  0  0  0  0
 47 48  2  0  0  0  0
 47 49  1  0  0  0  0
 49 50  1  0  0  0  0
M  END
> <From>
www.bindingDB.org

> <BindingDB Reactant_set_id>
51061804

> <Ligand InChI>
InChI=1S/C38H40N2O10/c1-6-30(42)46-20-37(4)27-17-29(49-34(44)23-11-9-22(18-39)10-12-23)38(5)33(36(27,3)14-13-28(37)47-21(2)41)32(43)31-26(50-38)16-25(48-35(31)45)24-8-7-15-40-19-24/h7-12,15-16,19,27-29,32-33,43H,6,13-14,17,20H2,1-5H3/t27-,28+,29+,32+,33-,36+,37+,38-/m1/s1

> <Ligand InChI Key>
YTUZSUQDNAGREA-LXGHJNSBSA-N

> <BindingDB MonomerID>
50433211

> <BindingDB Ligand Name>
CHEMBL2375603

> <Target Name>
Sterol O-acyltransferase 2

> <Target Source Organism According to Curator or DataSource>


> <Ki (nM)>


> <IC50 (nM)>
 14

> <Kd (nM)>


> <EC50 (nM)>


> <kon (M-1-s-1)>


> <koff (s-1)>


> <pH>


> <Temp (C)>


> <Curation/DataSource>
ChEMBL

> <Article DOI>
10.1016/j.bmcl.2013.02.088

> <BindingDB Entry DOI>
10.7270/Q20866P3

> <PMID>
23535327

> <PubChem AID>


> <Patent Number>


> <Authors>
Ohtawa, M; Yamazaki, H; Matsuda, D; Ohshiro, T; Rudel, LL; Omura, S; Tomoda, H; Nagamitsu, T

> <Institution>
Kitasato University

> <Link to Ligand in BindingDB>
http://www.bindingdb.org/bind/chemsearch/marvin/MolStructure.jsp?monomerid=50433211

> <Link to Target in BindingDB>
http://www.bindingdb.org/jsp/dbsearch/PrimarySearch_ki.jsp?energyterm=kJ/mole&tag=pol&polymerid=7773&target=Sterol+O-acyltransferase+2&column=ki&startPg=0&Increment=50&submit=Search

> <Link to Ligand-Target Pair in BindingDB>
http://www.bindingdb.org/jsp/dbsearch/PrimarySearch_ki.jsp?energyterm=kJ/mole&tag=r21&monomerid=50433211&enzyme=Sterol+O-acyltransferase+2&column=ki&startPg=0&Increment=50&submit=Search

> <Ligand HET ID in PDB>


> <PDB ID(s) for Ligand-Target Complex>


> <PubChem CID>
71602815

> <PubChem SID>
175445528

> <ChEBI ID of Ligand>


> <ChEMBL ID of Ligand>
CHEMBL2375603

> <DrugBank ID of Ligand>


> <IUPHAR_GRAC ID of Ligand>


> <KEGG ID of Ligand>


> <ZINC ID of Ligand>
ZINC96258631

> <Number of Protein Chains in Target (>1 implies a multichain complex)>
1

> <BindingDB Target Chain Sequence>
MEPGGARLRLQRTEGLGGERERQPCGDGNTETHRAPDLVQWTRHMEAVKAQLLEQAQGQLRELLDRAMREAIQSYPSQDKPLPPPPPGSLSRTQEPSLGKQKVFIIRKSLLDELMEVQHFRTIYHMFIAGLCVFIISTLAIDFIDEGRLLLEFDLLIFSFGQLPLALVTWVPMFLSTLLAPYQALRLWARGTWTQATGLGCALLAAHAVVLCALPVHVAVEHQLPPASRCVLVFEQVRFLMKSYSFLREAVPGTLRARRGEGIQAPSFSSYLYFLFCPTLIYRETYPRTPYVRWNYVAKNFAQALGCVLYACFILGRLCVPVFANMSREPFSTRALVLSILHATLPGIFMLLLIFFAFLHCWLNAFAEMLRFGDRMFYRDWWNSTSFSNYYRTWNVVVHDWLYSYVYQDGLRLLGARARGVAMLGVFLVSAVAHEYIFCFVLGFFYPVMLILFLVIGGMLNFMMHDQRTGPAWNVLMWTMLFLGQGIQVSLYCQEWYARRHCPLPQATFWGLVTPRSWSCHT

> <PDB ID(s) of Target Chain>


> <UniProt (SwissProt) Recommended Name of Target Chain>
Sterol O-acyltransferase 2

> <UniProt (SwissProt) Entry Name of Target Chain>
ACAT-2

> <UniProt (SwissProt) Primary ID of Target Chain>
O75908

> <UniProt (SwissProt) Secondary ID(s) of Target Chain>
F5H7W4 I6L9H9 Q4VB99 Q4VBA1 Q96TD4 Q9UNR2

> <UniProt (SwissProt) Alternative ID(s) of Target Chain>


> <UniProt (TrEMBL) Submitted Name of Target Chain>


> <UniProt (TrEMBL) Entry Name of Target Chain>


> <UniProt (TrEMBL) Primary ID of Target Chain>


> <UniProt (TrEMBL) Secondary ID(s) of Target Chain>


> <UniProt (TrEMBL) Alternative ID(s) of Target Chain>


$$$$

  Mrv0541 11241418062D          

 50 57  0  0  0  0            999 V2000
   16.6321  -20.2771    0.0000 C   0  0  0  0  0  0  0  0  0  0  0  0
   17.3448  -19.8601    0.0000 C   0  0  0  0  0  0  0  0  0  0  0  0
   18.0574  -20.2771    0.0000 C   0  0  1  0  0  0  0  0  0  0  0  0
   18.0585  -21.1029    0.0000 C   0  0  1  0  0  0  0  0  0  0  0  0
   18.7702  -21.5126    0.0000 C   0  0  0  0  0  0  0  0  0  0  0  0
   19.4854  -21.1011    0.0000 C   0  0  1  0  0  0  0  0  0  0  0  0
   18.7681  -19.8610    0.0000 C   0  0  2  0  0  0  0  0  0  0  0  0
   19.4801  -20.2776    0.0000 C   0  0  2  0  0  0  0  0  0  0  0  0
   20.1928  -19.8715    0.0000 O   0  0  0  0  0  0  0  0  0  0  0  0
   18.7689  -19.0385    0.0000 C   0  0  2  0  0  0  0  0  0  0  0  0
   17.3448  -21.5116    0.0000 C   0  0  1  0  0  0  0  0  0  0  0  0
   16.6321  -21.1029    0.0000 C   0  0  1  0  0  0  0  0  0  0  0  0
   15.9258  -21.5135    0.0000 O   0  0  0  0  0  0  0  0  0  0  0  0
   15.9259  -22.3344    0.0000 C   0  0  1  0  0  0  0  0  0  0  0  0
   16.6385  -22.7431    0.0000 O   0  0  0  0  0  0  0  0  0  0  0  0
   17.3511  -22.3309    0.0000 C   0  0  0  0  0  0  0  0  0  0  0  0
   19.4878  -18.6307    0.0000 C   0  0  0  0  0  0  0  0  0  0  0  0
   20.1982  -19.0489    0.0000 C   0  0  0  0  0  0  0  0  0  0  0  0
   20.9116  -18.6450    0.0000 C   0  0  0  0  0  0  0  0  0  0  0  0
   20.9207  -17.8213    0.0000 C   0  0  0  0  0  0  0  0  0  0  0  0
   20.2103  -17.4033    0.0000 O   0  0  0  0  0  0  0  0  0  0  0  0
   19.4908  -17.8088    0.0000 C   0  0  0  0  0  0  0  0  0  0  0  0
   18.7786  -17.3909    0.0000 O   0  0  0  0  0  0  0  0  0  0  0  0
   18.0556  -18.6225    0.0000 O   0  0  0  0  0  0  0  0  0  0  0  0
   19.4722  -19.4514    0.0000 C   0  0  0  0  0  0  0  0  0  0  0  0
   20.2016  -21.5122    0.0000 O   0  0  0  0  0  0  0  0  0  0  0  0
   18.0500  -19.4514    0.0000 C   0  0  0  0  0  0  0  0  0  0  0  0
   17.3369  -20.6859    0.0000 C   0  0  0  0  0  0  0  0  0  0  0  0
   20.9157  -21.0975    0.0000 C   0  0  0  0  0  0  0  0  0  0  0  0
   21.6318  -21.5085    0.0000 C   0  0  0  0  0  0  0  0  0  0  0  0
   20.9136  -20.2717    0.0000 O   0  0  0  0  0  0  0  0  0  0  0  0
   21.6318  -22.3343    0.0000 C   0  0  0  0  0  0  0  0  0  0  0  0
   22.3471  -22.7453    0.0000 C   0  0  0  0  0  0  0  0  0  0  0  0
   23.0623  -22.3306    0.0000 C   0  0  0  0  0  0  0  0  0  0  0  0
   23.0575  -21.5005    0.0000 C   0  0  0  0  0  0  0  0  0  0  0  0
   22.3416  -21.0932    0.0000 C   0  0  0  0  0  0  0  0  0  0  0  0
   21.6402  -17.4161    0.0000 C   0  0  0  0  0  0  0  0  0  0  0  0
   22.3516  -17.8377    0.0000 C   0  0  0  0  0  0  0  0  0  0  0  0
   23.0701  -17.4325    0.0000 N   0  0  0  0  0  0  0  0  0  0  0  0
   23.0787  -16.6059    0.0000 C   0  0  0  0  0  0  0  0  0  0  0  0
   22.3626  -16.1862    0.0000 C   0  0  0  0  0  0  0  0  0  0  0  0
   21.6469  -16.5938    0.0000 C   0  0  0  0  0  0  0  0  0  0  0  0
   15.2113  -22.7484    0.0000 C   0  0  0  0  0  0  0  0  0  0  0  0
   14.4986  -22.3336    0.0000 C   0  0  0  0  0  0  0  0  0  0  0  0
   13.7846  -22.7469    0.0000 C   0  0  0  0  0  0  0  0  0  0  0  0
   13.7854  -23.5735    0.0000 C   0  0  0  0  0  0  0  0  0  0  0  0
   14.5062  -23.9851    0.0000 C   0  0  0  0  0  0  0  0  0  0  0  0
   15.2173  -23.5694    0.0000 C   0  0  0  0  0  0  0  0  0  0  0  0
   13.0715  -23.9884    0.0000 C   0  0  0  0  0  0  0  0  0  0  0  0
   23.7790  -22.7407    0.0000 F   0  0  0  0  0  0  0  0  0  0  0  0
 12  1  1  0  0  0  0
  1  2  1  0  0  0  0
  4 11  1  0  0  0  0
  3  2  1  0  0  0  0
  3  4  1  0  0  0  0
  7  3  1  1  0  0  0
  4  5  1  1  0  0  0
  6  5  1  0  0  0  0
  8  6  1  0  0  0  0
  7  8  1  0  0  0  0
  7 10  1  0  0  0  0
  8  9  1  0  0  0  0
  9 18  1  0  0  0  0
 10 17  1  0  0  0  0
 11 12  1  0  0  0  0
 11 16  1  0  0  0  0
 12 13  1  1  0  0  0
 14 13  1  0  0  0  0
 14 15  1  0  0  0  0
 15 16  1  0  0  0  0
 17 18  2  0  0  0  0
 17 22  1  0  0  0  0
 18 19  1  0  0  0  0
 19 20  2  0  0  0  0
 20 21  1  0  0  0  0
 21 22  1  0  0  0  0
 22 23  2  0  0  0  0
 10 24  1  1  0  0  0
  8 25  1  1  0  0  0
  6 26  1  1  0  0  0
  3 27  1  1  0  0  0
 11 28  1  1  0  0  0
 26 29  1  0  0  0  0
 29 30  1  0  0  0  0
 29 31  2  0  0  0  0
 30 32  2  0  0  0  0
 32 33  1  0  0  0  0
 33 34  2  0  0  0  0
 34 35  1  0  0  0  0
 35 36  2  0  0  0  0
 36 30  1  0  0  0  0
 37 38  2  0  0  0  0
 38 39  1  0  0  0  0
 39 40  2  0  0  0  0
 40 41  1  0  0  0  0
 41 42  2  0  0  0  0
 42 37  1  0  0  0  0
 20 37  1  0  0  0  0
 14 43  1  1  0  0  0
 43 44  2  0  0  0  0
 44 45  1  0  0  0  0
 45 46  2  0  0  0  0
 46 47  1  0  0  0  0
 47 48  2  0  0  0  0
 48 43  1  0  0  0  0
 46 49  1  0  0  0  0
 34 50  1  0  0  0  0
M  END
> <From>
www.bindingDB.org

> <BindingDB Reactant_set_id>
51068465

> <Ligand InChI>
InChI=1S/C40H40FNO8/c1-22-7-9-24(10-8-22)37-46-21-39(3)29-19-31(48-35(44)23-11-13-26(41)14-12-23)40(4)34(38(29,2)16-15-30(39)49-37)33(43)32-28(50-40)18-27(47-36(32)45)25-6-5-17-42-20-25/h5-14,17-18,20,29-31,33-34,37,43H,15-16,19,21H2,1-4H3/t29-,30+,31+,33+,34-,37-,38+,39+,40-/m1/s1

> <Ligand InChI Key>
AXEGOIFVSCVHQA-WVGFPPCDSA-N

> <BindingDB MonomerID>
50436350

> <BindingDB Ligand Name>
CHEMBL2398809

> <Target Name>
Sterol O-acyltransferase 2

> <Target Source Organism According to Curator or DataSource>


> <Ki (nM)>


> <IC50 (nM)>
 15

> <Kd (nM)>


> <EC50 (nM)>


> <kon (M-1-s-1)>


> <koff (s-1)>


> <pH>


> <Temp (C)>


> <Curation/DataSource>
ChEMBL

> <Article DOI>
10.1016/j.bmcl.2013.04.075

> <BindingDB Entry DOI>
10.7270/Q2WD41Z9

> <PMID>
23711919

> <PubChem AID>


> <Patent Number>


> <Authors>
Ohtawa, M; Yamazaki, H; Ohte, S; Matsuda, D; Ohshiro, T; Rudel, LL; Omura, S; Tomoda, H; Nagamitsu, T

> <Institution>
Kitasato University

> <Link to Ligand in BindingDB>
http://www.bindingdb.org/bind/chemsearch/marvin/MolStructure.jsp?monomerid=50436350

> <Link to Target in BindingDB>
http://www.bindingdb.org/jsp/dbsearch/PrimarySearch_ki.jsp?energyterm=kJ/mole&tag=pol&polymerid=7773&target=Sterol+O-acyltransferase+2&column=ki&startPg=0&Increment=50&submit=Search

> <Link to Ligand-Target Pair in BindingDB>
http://www.bindingdb.org/jsp/dbsearch/PrimarySearch_ki.jsp?energyterm=kJ/mole&tag=r21&monomerid=50436350&enzyme=Sterol+O-acyltransferase+2&column=ki&startPg=0&Increment=50&submit=Search

> <Ligand HET ID in PDB>


> <PDB ID(s) for Ligand-Target Complex>


> <PubChem CID>
71682967

> <PubChem SID>
175448667

> <ChEBI ID of Ligand>


> <ChEMBL ID of Ligand>
CHEMBL2398809

> <DrugBank ID of Ligand>


> <IUPHAR_GRAC ID of Ligand>


> <KEGG ID of Ligand>


> <ZINC ID of Ligand>
ZINC72317454

> <Number of Protein Chains in Target (>1 implies a multichain complex)>
1

> <BindingDB Target Chain Sequence>
MEPGGARLRLQRTEGLGGERERQPCGDGNTETHRAPDLVQWTRHMEAVKAQLLEQAQGQLRELLDRAMREAIQSYPSQDKPLPPPPPGSLSRTQEPSLGKQKVFIIRKSLLDELMEVQHFRTIYHMFIAGLCVFIISTLAIDFIDEGRLLLEFDLLIFSFGQLPLALVTWVPMFLSTLLAPYQALRLWARGTWTQATGLGCALLAAHAVVLCALPVHVAVEHQLPPASRCVLVFEQVRFLMKSYSFLREAVPGTLRARRGEGIQAPSFSSYLYFLFCPTLIYRETYPRTPYVRWNYVAKNFAQALGCVLYACFILGRLCVPVFANMSREPFSTRALVLSILHATLPGIFMLLLIFFAFLHCWLNAFAEMLRFGDRMFYRDWWNSTSFSNYYRTWNVVVHDWLYSYVYQDGLRLLGARARGVAMLGVFLVSAVAHEYIFCFVLGFFYPVMLILFLVIGGMLNFMMHDQRTGPAWNVLMWTMLFLGQGIQVSLYCQEWYARRHCPLPQATFWGLVTPRSWSCHT

> <PDB ID(s) of Target Chain>


> <UniProt (SwissProt) Recommended Name of Target Chain>
Sterol O-acyltransferase 2

> <UniProt (SwissProt) Entry Name of Target Chain>
ACAT-2

> <UniProt (SwissProt) Primary ID of Target Chain>
O75908

> <UniProt (SwissProt) Secondary ID(s) of Target Chain>
F5H7W4 I6L9H9 Q4VB99 Q4VBA1 Q96TD4 Q9UNR2

> <UniProt (SwissProt) Alternative ID(s) of Target Chain>


> <UniProt (TrEMBL) Submitted Name of Target Chain>


> <UniProt (TrEMBL) Entry Name of Target Chain>


> <UniProt (TrEMBL) Primary ID of Target Chain>


> <UniProt (TrEMBL) Secondary ID(s) of Target Chain>


> <UniProt (TrEMBL) Alternative ID(s) of Target Chain>


$$$$

  Mrv0541 11241417312D          

 51 56  0  0  0  0            999 V2000
    2.3333  -28.9871    0.0000 C   0  0  0  0  0  0  0  0  0  0  0  0
    1.9250  -28.2747    0.0000 C   0  0  1  0  0  0  0  0  0  0  0  0
    1.5121  -28.9845    0.0000 C   0  0  0  0  0  0  0  0  0  0  0  0
    1.2167  -27.0414    0.0000 C   0  0  0  0  0  0  0  0  0  0  0  0
    1.2167  -27.8664    0.0000 C   0  0  2  0  0  0  0  0  0  0  0  0
    1.9286  -26.6247    0.0000 C   0  0  0  0  0  0  0  0  0  0  0  0
    2.6407  -27.0414    0.0000 C   0  0  1  0  0  0  0  0  0  0  0  0
    2.6418  -27.8664    0.0000 C   0  0  1  0  0  0  0  0  0  0  0  0
    3.3528  -28.2756    0.0000 C   0  0  0  0  0  0  0  0  0  0  0  0
    4.0674  -27.8645    0.0000 C   0  0  1  0  0  0  0  0  0  0  0  0
    3.3507  -26.6257    0.0000 C   0  0  2  0  0  0  0  0  0  0  0  0
    4.0682  -27.0402    0.0000 C   0  0  2  0  0  0  0  0  0  0  0  0
    4.7820  -26.6283    0.0000 O   0  0  0  0  0  0  0  0  0  0  0  0
    3.3469  -25.7993    0.0000 C   0  0  2  0  0  0  0  0  0  0  0  0
    4.0669  -25.3858    0.0000 C   0  0  0  0  0  0  0  0  0  0  0  0
    4.7895  -25.7994    0.0000 C   0  0  0  0  0  0  0  0  0  0  0  0
    5.5050  -25.3828    0.0000 C   0  0  0  0  0  0  0  0  0  0  0  0
    5.5043  -24.5508    0.0000 C   0  0  0  0  0  0  0  0  0  0  0  0
    4.7817  -24.1372    0.0000 O   0  0  0  0  0  0  0  0  0  0  0  0
    4.0599  -24.5556    0.0000 C   0  0  0  0  0  0  0  0  0  0  0  0
    6.2170  -24.1392    0.0000 C   0  0  0  0  0  0  0  0  0  0  0  0
    6.9326  -24.5518    0.0000 C   0  0  0  0  0  0  0  0  0  0  0  0
    7.6457  -24.1383    0.0000 N   0  0  0  0  0  0  0  0  0  0  0  0
    7.6443  -23.3125    0.0000 C   0  0  0  0  0  0  0  0  0  0  0  0
    6.9238  -22.9061    0.0000 C   0  0  0  0  0  0  0  0  0  0  0  0
    6.2137  -23.3176    0.0000 C   0  0  0  0  0  0  0  0  0  0  0  0
    4.7812  -28.2779    0.0000 O   0  0  0  0  0  0  0  0  0  0  0  0
    5.4963  -27.8664    0.0000 C   0  0  0  0  0  0  0  0  0  0  0  0
    6.2102  -28.2798    0.0000 C   0  0  0  0  0  0  0  0  0  0  0  0
    5.4973  -27.0414    0.0000 O   0  0  0  0  0  0  0  0  0  0  0  0
    6.2045  -29.1050    0.0000 C   0  0  0  0  0  0  0  0  0  0  0  0
    6.9175  -29.5183    0.0000 C   0  0  0  0  0  0  0  0  0  0  0  0
    7.6335  -29.1066    0.0000 C   0  0  0  0  0  0  0  0  0  0  0  0
    7.6320  -28.2773    0.0000 C   0  0  0  0  0  0  0  0  0  0  0  0
    6.9182  -27.8678    0.0000 C   0  0  0  0  0  0  0  0  0  0  0  0
    8.3473  -29.5152    0.0000 C   0  0  0  0  0  0  0  0  0  0  0  0
    9.0619  -29.9276    0.0000 N   0  0  0  0  0  0  0  0  0  0  0  0
    3.3433  -24.1467    0.0000 O   0  0  0  0  0  0  0  0  0  0  0  0
    2.6320  -25.3876    0.0000 O   0  0  0  0  0  0  0  0  0  0  0  0
    2.6333  -26.2164    0.0000 C   0  0  0  0  0  0  0  0  0  0  0  0
    4.0624  -26.2122    0.0000 C   0  0  0  0  0  0  0  0  0  0  0  0
    0.5028  -28.2799    0.0000 O   0  0  0  0  0  0  0  0  0  0  0  0
   -0.2127  -27.8685    0.0000 C   0  0  0  0  0  0  0  0  0  0  0  0
   -0.9262  -28.2820    0.0000 C   0  0  0  0  0  0  0  0  0  0  0  0
   -0.2199  -27.0435    0.0000 O   0  0  0  0  0  0  0  0  0  0  0  0
    0.6871  -28.9819    0.0000 O   0  0  0  0  0  0  0  0  0  0  0  0
    0.2724  -29.6950    0.0000 C   0  0  0  0  0  0  0  0  0  0  0  0
   -0.5557  -29.6924    0.0000 O   0  0  0  0  0  0  0  0  0  0  0  0
    0.6826  -30.4108    0.0000 C   0  0  0  0  0  0  0  0  0  0  0  0
   -1.6438  -27.8715    0.0000 C   0  0  0  0  0  0  0  0  0  0  0  0
   -0.9285  -29.1070    0.0000 C   0  0  0  0  0  0  0  0  0  0  0  0
  2  1  1  1  0  0  0
  2  3  1  6  0  0  0
  5  4  1  0  0  0  0
  4  6  1  0  0  0  0
  2  5  1  0  0  0  0
  8  2  1  0  0  0  0
  7  6  1  0  0  0  0
  7  8  1  0  0  0  0
 11  7  1  1  0  0  0
  8  9  1  1  0  0  0
 10  9  1  0  0  0  0
 12 10  1  0  0  0  0
 11 12  1  0  0  0  0
 11 14  1  0  0  0  0
 12 13  1  0  0  0  0
 13 16  1  0  0  0  0
 14 15  1  0  0  0  0
 15 16  2  0  0  0  0
 15 20  1  0  0  0  0
 16 17  1  0  0  0  0
 17 18  2  0  0  0  0
 18 19  1  0  0  0  0
 19 20  1  0  0  0  0
 21 22  2  0  0  0  0
 22 23  1  0  0  0  0
 23 24  2  0  0  0  0
 24 25  1  0  0  0  0
 25 26  2  0  0  0  0
 26 21  1  0  0  0  0
 18 21  1  0  0  0  0
 10 27  1  1  0  0  0
 27 28  1  0  0  0  0
 28 29  1  0  0  0  0
 28 30  2  0  0  0  0
 29 31  2  0  0  0  0
 31 32  1  0  0  0  0
 32 33  2  0  0  0  0
 33 34  1  0  0  0  0
 34 35  2  0  0  0  0
 35 29  1  0  0  0  0
 36 37  3  0  0  0  0
 33 36  1  0  0  0  0
 20 38  2  0  0  0  0
 14 39  1  1  0  0  0
  7 40  1  1  0  0  0
 12 41  1  1  0  0  0
  5 42  1  1  0  0  0
 42 43  1  0  0  0  0
 43 44  1  0  0  0  0
 43 45  2  0  0  0  0
  3 46  1  0  0  0  0
 46 47  1  0  0  0  0
 47 48  2  0  0  0  0
 47 49  1  0  0  0  0
 44 50  1  0  0  0  0
 44 51  1  0  0  0  0
M  END
> <From>
www.bindingDB.org

> <BindingDB Reactant_set_id>
51061803

> <Ligand InChI>
InChI=1S/C39H42N2O10/c1-21(2)34(44)49-29-13-14-37(4)28(38(29,5)20-47-22(3)42)17-30(50-35(45)24-11-9-23(18-40)10-12-24)39(6)33(37)32(43)31-27(51-39)16-26(48-36(31)46)25-8-7-15-41-19-25/h7-12,15-16,19,21,28-30,32-33,43H,13-14,17,20H2,1-6H3/t28-,29+,30+,32+,33-,37+,38+,39-/m1/s1

> <Ligand InChI Key>
UTXRNGRLPLXZII-UQGXDOBHSA-N

> <BindingDB MonomerID>
50433210

> <BindingDB Ligand Name>
CHEMBL2375706

> <Target Name>
Sterol O-acyltransferase 2

> <Target Source Organism According to Curator or DataSource>


> <Ki (nM)>


> <IC50 (nM)>
 15

> <Kd (nM)>


> <EC50 (nM)>


> <kon (M-1-s-1)>


> <koff (s-1)>


> <pH>


> <Temp (C)>


> <Curation/DataSource>
ChEMBL

> <Article DOI>
10.1016/j.bmcl.2013.02.088

> <BindingDB Entry DOI>
10.7270/Q20866P3

> <PMID>
23535327

> <PubChem AID>


> <Patent Number>


> <Authors>
Ohtawa, M; Yamazaki, H; Matsuda, D; Ohshiro, T; Rudel, LL; Omura, S; Tomoda, H; Nagamitsu, T

> <Institution>
Kitasato University

> <Link to Ligand in BindingDB>
http://www.bindingdb.org/bind/chemsearch/marvin/MolStructure.jsp?monomerid=50433210

> <Link to Target in BindingDB>
http://www.bindingdb.org/jsp/dbsearch/PrimarySearch_ki.jsp?energyterm=kJ/mole&tag=pol&polymerid=7773&target=Sterol+O-acyltransferase+2&column=ki&startPg=0&Increment=50&submit=Search

> <Link to Ligand-Target Pair in BindingDB>
http://www.bindingdb.org/jsp/dbsearch/PrimarySearch_ki.jsp?energyterm=kJ/mole&tag=r21&monomerid=50433210&enzyme=Sterol+O-acyltransferase+2&column=ki&startPg=0&Increment=50&submit=Search

> <Ligand HET ID in PDB>


> <PDB ID(s) for Ligand-Target Complex>


> <PubChem CID>
71602767

> <PubChem SID>
175445527

> <ChEBI ID of Ligand>


> <ChEMBL ID of Ligand>
CHEMBL2375706

> <DrugBank ID of Ligand>


> <IUPHAR_GRAC ID of Ligand>


> <KEGG ID of Ligand>


> <ZINC ID of Ligand>
ZINC96258629

> <Number of Protein Chains in Target (>1 implies a multichain complex)>
1

> <BindingDB Target Chain Sequence>
MEPGGARLRLQRTEGLGGERERQPCGDGNTETHRAPDLVQWTRHMEAVKAQLLEQAQGQLRELLDRAMREAIQSYPSQDKPLPPPPPGSLSRTQEPSLGKQKVFIIRKSLLDELMEVQHFRTIYHMFIAGLCVFIISTLAIDFIDEGRLLLEFDLLIFSFGQLPLALVTWVPMFLSTLLAPYQALRLWARGTWTQATGLGCALLAAHAVVLCALPVHVAVEHQLPPASRCVLVFEQVRFLMKSYSFLREAVPGTLRARRGEGIQAPSFSSYLYFLFCPTLIYRETYPRTPYVRWNYVAKNFAQALGCVLYACFILGRLCVPVFANMSREPFSTRALVLSILHATLPGIFMLLLIFFAFLHCWLNAFAEMLRFGDRMFYRDWWNSTSFSNYYRTWNVVVHDWLYSYVYQDGLRLLGARARGVAMLGVFLVSAVAHEYIFCFVLGFFYPVMLILFLVIGGMLNFMMHDQRTGPAWNVLMWTMLFLGQGIQVSLYCQEWYARRHCPLPQATFWGLVTPRSWSCHT

> <PDB ID(s) of Target Chain>


> <UniProt (SwissProt) Recommended Name of Target Chain>
Sterol O-acyltransferase 2

> <UniProt (SwissProt) Entry Name of Target Chain>
ACAT-2

> <UniProt (SwissProt) Primary ID of Target Chain>
O75908

> <UniProt (SwissProt) Secondary ID(s) of Target Chain>
F5H7W4 I6L9H9 Q4VB99 Q4VBA1 Q96TD4 Q9UNR2

> <UniProt (SwissProt) Alternative ID(s) of Target Chain>


> <UniProt (TrEMBL) Submitted Name of Target Chain>


> <UniProt (TrEMBL) Entry Name of Target Chain>


> <UniProt (TrEMBL) Primary ID of Target Chain>


> <UniProt (TrEMBL) Secondary ID(s) of Target Chain>


> <UniProt (TrEMBL) Alternative ID(s) of Target Chain>


$$$$

  Mrv0541 11241417102D          

 49 54  0  0  0  0            999 V2000
   11.3499  -29.5080    0.0000 C   0  0  0  0  0  0  0  0  0  0  0  0
   10.9415  -28.7955    0.0000 C   0  0  2  0  0  0  0  0  0  0  0  0
   10.5286  -29.5054    0.0000 C   0  0  0  0  0  0  0  0  0  0  0  0
   10.2333  -27.5622    0.0000 C   0  0  0  0  0  0  0  0  0  0  0  0
   10.2333  -28.3872    0.0000 C   0  0  2  0  0  0  0  0  0  0  0  0
   10.9453  -27.1455    0.0000 C   0  0  0  0  0  0  0  0  0  0  0  0
   11.6572  -27.5622    0.0000 C   0  0  1  0  0  0  0  0  0  0  0  0
   11.6583  -28.3872    0.0000 C   0  0  1  0  0  0  0  0  0  0  0  0
   12.3693  -28.7965    0.0000 C   0  0  0  0  0  0  0  0  0  0  0  0
   13.0839  -28.3854    0.0000 C   0  0  1  0  0  0  0  0  0  0  0  0
   12.3672  -27.1466    0.0000 C   0  0  2  0  0  0  0  0  0  0  0  0
   13.0825  -27.5650    0.0000 C   0  0  2  0  0  0  0  0  0  0  0  0
   13.7985  -27.1572    0.0000 O   0  0  0  0  0  0  0  0  0  0  0  0
   12.3680  -26.3201    0.0000 C   0  0  2  0  0  0  0  0  0  0  0  0
   13.0904  -25.9107    0.0000 C   0  0  0  0  0  0  0  0  0  0  0  0
   13.8085  -26.3328    0.0000 C   0  0  0  0  0  0  0  0  0  0  0  0
   14.5292  -25.9243    0.0000 C   0  0  0  0  0  0  0  0  0  0  0  0
   14.5379  -25.0919    0.0000 C   0  0  0  0  0  0  0  0  0  0  0  0
   13.8199  -24.6697    0.0000 O   0  0  0  0  0  0  0  0  0  0  0  0
   13.0929  -25.0799    0.0000 C   0  0  0  0  0  0  0  0  0  0  0  0
   15.2518  -24.6877    0.0000 C   0  0  0  0  0  0  0  0  0  0  0  0
   15.9626  -25.1085    0.0000 C   0  0  0  0  0  0  0  0  0  0  0  0
   16.6804  -24.7034    0.0000 N   0  0  0  0  0  0  0  0  0  0  0  0
   16.6885  -23.8776    0.0000 C   0  0  0  0  0  0  0  0  0  0  0  0
   15.9728  -23.4585    0.0000 C   0  0  0  0  0  0  0  0  0  0  0  0
   15.2581  -23.8661    0.0000 C   0  0  0  0  0  0  0  0  0  0  0  0
   12.3812  -24.6628    0.0000 O   0  0  0  0  0  0  0  0  0  0  0  0
   13.7984  -28.7978    0.0000 O   0  0  0  0  0  0  0  0  0  0  0  0
   14.5128  -28.3852    0.0000 C   0  0  0  0  0  0  0  0  0  0  0  0
   15.2274  -28.7976    0.0000 C   0  0  0  0  0  0  0  0  0  0  0  0
   14.5127  -27.5602    0.0000 O   0  0  0  0  0  0  0  0  0  0  0  0
    9.5194  -28.8007    0.0000 O   0  0  0  0  0  0  0  0  0  0  0  0
    8.8043  -28.3893    0.0000 C   0  0  0  0  0  0  0  0  0  0  0  0
    8.0904  -28.8028    0.0000 C   0  0  0  0  0  0  0  0  0  0  0  0
    8.8031  -27.5643    0.0000 O   0  0  0  0  0  0  0  0  0  0  0  0
   10.9351  -30.2211    0.0000 O   0  0  0  0  0  0  0  0  0  0  0  0
   11.3454  -30.9369    0.0000 C   0  0  0  0  0  0  0  0  0  0  0  0
   10.9305  -31.6500    0.0000 C   0  0  0  0  0  0  0  0  0  0  0  0
   12.1703  -30.9396    0.0000 O   0  0  0  0  0  0  0  0  0  0  0  0
   11.6554  -25.9045    0.0000 O   0  0  0  0  0  0  0  0  0  0  0  0
   11.6498  -26.7372    0.0000 C   0  0  0  0  0  0  0  0  0  0  0  0
   13.0748  -26.7372    0.0000 C   0  0  0  0  0  0  0  0  0  0  0  0
   15.2222  -29.6216    0.0000 C   0  0  0  0  0  0  0  0  0  0  0  0
   15.9359  -30.0340    0.0000 C   0  0  0  0  0  0  0  0  0  0  0  0
   16.6512  -29.6213    0.0000 C   0  0  0  0  0  0  0  0  0  0  0  0
   16.6485  -28.7920    0.0000 C   0  0  0  0  0  0  0  0  0  0  0  0
   15.9343  -28.3835    0.0000 C   0  0  0  0  0  0  0  0  0  0  0  0
   17.3614  -28.3769    0.0000 O   0  0  0  0  0  0  0  0  0  0  0  0
   18.0774  -28.7868    0.0000 C   0  0  0  0  0  0  0  0  0  0  0  0
  2  1  1  6  0  0  0
  2  3  1  1  0  0  0
  5  4  1  0  0  0  0
  4  6  1  0  0  0  0
  2  5  1  0  0  0  0
  8  2  1  0  0  0  0
  7  6  1  0  0  0  0
  7  8  1  0  0  0  0
 11  7  1  1  0  0  0
  8  9  1  1  0  0  0
 10  9  1  0  0  0  0
 12 10  1  0  0  0  0
 11 12  1  0  0  0  0
 11 14  1  0  0  0  0
 12 13  1  0  0  0  0
 13 16  1  0  0  0  0
 14 15  1  0  0  0  0
 15 16  2  0  0  0  0
 15 20  1  0  0  0  0
 16 17  1  0  0  0  0
 17 18  2  0  0  0  0
 18 19  1  0  0  0  0
 19 20  1  0  0  0  0
 21 22  2  0  0  0  0
 22 23  1  0  0  0  0
 23 24  2  0  0  0  0
 24 25  1  0  0  0  0
 25 26  2  0  0  0  0
 26 21  1  0  0  0  0
 18 21  1  0  0  0  0
 20 27  2  0  0  0  0
 10 28  1  1  0  0  0
 28 29  1  0  0  0  0
 29 30  1  0  0  0  0
 29 31  2  0  0  0  0
  5 32  1  1  0  0  0
 32 33  1  0  0  0  0
 33 34  1  0  0  0  0
 33 35  2  0  0  0  0
  1 36  1  0  0  0  0
 36 37  1  0  0  0  0
 37 38  1  0  0  0  0
 37 39  2  0  0  0  0
 14 40  1  1  0  0  0
  7 41  1  1  0  0  0
 12 42  1  1  0  0  0
 30 43  2  0  0  0  0
 43 44  1  0  0  0  0
 44 45  2  0  0  0  0
 45 46  1  0  0  0  0
 46 47  2  0  0  0  0
 47 30  1  0  0  0  0
 46 48  1  0  0  0  0
 48 49  1  0  0  0  0
M  END
> <From>
www.bindingDB.org

> <BindingDB Reactant_set_id>
51053274

> <Ligand InChI>
InChI=1S/C37H41NO11/c1-20(39)45-19-36(4)27-17-29(48-33(42)22-9-7-11-24(15-22)44-6)37(5)32(35(27,3)13-12-28(36)46-21(2)40)31(41)30-26(49-37)16-25(47-34(30)43)23-10-8-14-38-18-23/h7-11,14-16,18,27-29,31-32,41H,12-13,17,19H2,1-6H3/t27-,28+,29+,31+,32-,35+,36+,37-/m1/s1

> <Ligand InChI Key>
ZCVVGVFAXADLNS-ZRPSWOMSSA-N

> <BindingDB MonomerID>
50429584

> <BindingDB Ligand Name>
CHEMBL2334205

> <Target Name>
Sterol O-acyltransferase 2

> <Target Source Organism According to Curator or DataSource>


> <Ki (nM)>


> <IC50 (nM)>
 15

> <Kd (nM)>


> <EC50 (nM)>


> <kon (M-1-s-1)>


> <koff (s-1)>


> <pH>


> <Temp (C)>


> <Curation/DataSource>
ChEMBL

> <Article DOI>
10.1016/j.bmcl.2012.12.099

> <BindingDB Entry DOI>
10.7270/Q2P270HW

> <PMID>
23369538

> <PubChem AID>


> <Patent Number>


> <Authors>
Ohtawa, M; Yamazaki, H; Ohte, S; Matsuda, D; Ohshiro, T; Rudel, LL; Omura, S; Tomoda, H; Nagamitsu, T

> <Institution>
Kitasato University

> <Link to Ligand in BindingDB>
http://www.bindingdb.org/bind/chemsearch/marvin/MolStructure.jsp?monomerid=50429584

> <Link to Target in BindingDB>
http://www.bindingdb.org/jsp/dbsearch/PrimarySearch_ki.jsp?energyterm=kJ/mole&tag=pol&polymerid=7773&target=Sterol+O-acyltransferase+2&column=ki&startPg=0&Increment=50&submit=Search

> <Link to Ligand-Target Pair in BindingDB>
http://www.bindingdb.org/jsp/dbsearch/PrimarySearch_ki.jsp?energyterm=kJ/mole&tag=r21&monomerid=50429584&enzyme=Sterol+O-acyltransferase+2&column=ki&startPg=0&Increment=50&submit=Search

> <Ligand HET ID in PDB>


> <PDB ID(s) for Ligand-Target Complex>


> <PubChem CID>
71561295

> <PubChem SID>
164158459

> <ChEBI ID of Ligand>


> <ChEMBL ID of Ligand>
CHEMBL2334205

> <DrugBank ID of Ligand>


> <IUPHAR_GRAC ID of Ligand>


> <KEGG ID of Ligand>


> <ZINC ID of Ligand>
ZINC95592698

> <Number of Protein Chains in Target (>1 implies a multichain complex)>
1

> <BindingDB Target Chain Sequence>
MEPGGARLRLQRTEGLGGERERQPCGDGNTETHRAPDLVQWTRHMEAVKAQLLEQAQGQLRELLDRAMREAIQSYPSQDKPLPPPPPGSLSRTQEPSLGKQKVFIIRKSLLDELMEVQHFRTIYHMFIAGLCVFIISTLAIDFIDEGRLLLEFDLLIFSFGQLPLALVTWVPMFLSTLLAPYQALRLWARGTWTQATGLGCALLAAHAVVLCALPVHVAVEHQLPPASRCVLVFEQVRFLMKSYSFLREAVPGTLRARRGEGIQAPSFSSYLYFLFCPTLIYRETYPRTPYVRWNYVAKNFAQALGCVLYACFILGRLCVPVFANMSREPFSTRALVLSILHATLPGIFMLLLIFFAFLHCWLNAFAEMLRFGDRMFYRDWWNSTSFSNYYRTWNVVVHDWLYSYVYQDGLRLLGARARGVAMLGVFLVSAVAHEYIFCFVLGFFYPVMLILFLVIGGMLNFMMHDQRTGPAWNVLMWTMLFLGQGIQVSLYCQEWYARRHCPLPQATFWGLVTPRSWSCHT

> <PDB ID(s) of Target Chain>


> <UniProt (SwissProt) Recommended Name of Target Chain>
Sterol O-acyltransferase 2

> <UniProt (SwissProt) Entry Name of Target Chain>
ACAT-2

> <UniProt (SwissProt) Primary ID of Target Chain>
O75908

> <UniProt (SwissProt) Secondary ID(s) of Target Chain>
F5H7W4 I6L9H9 Q4VB99 Q4VBA1 Q96TD4 Q9UNR2

> <UniProt (SwissProt) Alternative ID(s) of Target Chain>


> <UniProt (TrEMBL) Submitted Name of Target Chain>


> <UniProt (TrEMBL) Entry Name of Target Chain>


> <UniProt (TrEMBL) Primary ID of Target Chain>


> <UniProt (TrEMBL) Secondary ID(s) of Target Chain>


> <UniProt (TrEMBL) Alternative ID(s) of Target Chain>


$$$$

  Mrv0541 11241417102D          

 51 57  0  0  0  0            999 V2000
    2.9210  -13.0175    0.0000 C   0  0  0  0  0  0  0  0  0  0  0  0
    2.5126  -12.3049    0.0000 C   0  0  2  0  0  0  0  0  0  0  0  0
    2.0998  -13.0149    0.0000 C   0  0  0  0  0  0  0  0  0  0  0  0
    1.8043  -11.0715    0.0000 C   0  0  0  0  0  0  0  0  0  0  0  0
    1.8043  -11.8965    0.0000 C   0  0  2  0  0  0  0  0  0  0  0  0
    2.5164  -10.6548    0.0000 C   0  0  0  0  0  0  0  0  0  0  0  0
    3.2284  -11.0715    0.0000 C   0  0  1  0  0  0  0  0  0  0  0  0
    3.2295  -11.8965    0.0000 C   0  0  1  0  0  0  0  0  0  0  0  0
    3.9405  -12.3059    0.0000 C   0  0  0  0  0  0  0  0  0  0  0  0
    4.6551  -11.8947    0.0000 C   0  0  1  0  0  0  0  0  0  0  0  0
    3.9384  -10.6558    0.0000 C   0  0  2  0  0  0  0  0  0  0  0  0
    4.6537  -11.0743    0.0000 C   0  0  2  0  0  0  0  0  0  0  0  0
    5.3697  -10.6664    0.0000 O   0  0  0  0  0  0  0  0  0  0  0  0
    3.9392   -9.8293    0.0000 C   0  0  2  0  0  0  0  0  0  0  0  0
    4.6616   -9.4198    0.0000 C   0  0  0  0  0  0  0  0  0  0  0  0
    5.3797   -9.8420    0.0000 C   0  0  0  0  0  0  0  0  0  0  0  0
    6.1005   -9.4335    0.0000 C   0  0  0  0  0  0  0  0  0  0  0  0
    6.1094   -8.6010    0.0000 C   0  0  0  0  0  0  0  0  0  0  0  0
    5.3912   -8.1789    0.0000 O   0  0  0  0  0  0  0  0  0  0  0  0
    4.6642   -8.5890    0.0000 C   0  0  0  0  0  0  0  0  0  0  0  0
    6.8232   -8.1968    0.0000 C   0  0  0  0  0  0  0  0  0  0  0  0
    7.5341   -8.6177    0.0000 C   0  0  0  0  0  0  0  0  0  0  0  0
    8.2519   -8.2124    0.0000 N   0  0  0  0  0  0  0  0  0  0  0  0
    8.2600   -7.3866    0.0000 C   0  0  0  0  0  0  0  0  0  0  0  0
    7.5444   -6.9676    0.0000 C   0  0  0  0  0  0  0  0  0  0  0  0
    6.8295   -7.3752    0.0000 C   0  0  0  0  0  0  0  0  0  0  0  0
    3.9523   -8.1718    0.0000 O   0  0  0  0  0  0  0  0  0  0  0  0
    5.3697  -12.3071    0.0000 O   0  0  0  0  0  0  0  0  0  0  0  0
    6.0842  -11.8945    0.0000 C   0  0  0  0  0  0  0  0  0  0  0  0
    6.7988  -12.3069    0.0000 C   0  0  0  0  0  0  0  0  0  0  0  0
    6.0841  -11.0695    0.0000 O   0  0  0  0  0  0  0  0  0  0  0  0
    1.0904  -12.3102    0.0000 O   0  0  0  0  0  0  0  0  0  0  0  0
    0.3753  -11.8986    0.0000 C   0  0  0  0  0  0  0  0  0  0  0  0
   -0.3447  -12.3122    0.0000 C   0  0  0  0  0  0  0  0  0  0  0  0
    0.3741  -11.0736    0.0000 O   0  0  0  0  0  0  0  0  0  0  0  0
    2.5062  -13.7307    0.0000 O   0  0  0  0  0  0  0  0  0  0  0  0
    2.9165  -14.4465    0.0000 C   0  0  0  0  0  0  0  0  0  0  0  0
    2.5016  -15.1597    0.0000 C   0  0  0  0  0  0  0  0  0  0  0  0
    3.7415  -14.4491    0.0000 O   0  0  0  0  0  0  0  0  0  0  0  0
    3.2265   -9.4137    0.0000 O   0  0  0  0  0  0  0  0  0  0  0  0
    3.2210  -10.2465    0.0000 C   0  0  0  0  0  0  0  0  0  0  0  0
    4.6462  -10.2465    0.0000 C   0  0  0  0  0  0  0  0  0  0  0  0
    6.7936  -13.1311    0.0000 C   0  0  0  0  0  0  0  0  0  0  0  0
    8.2200  -12.3014    0.0000 C   0  0  0  0  0  0  0  0  0  0  0  0
    7.5057  -11.8928    0.0000 C   0  0  0  0  0  0  0  0  0  0  0  0
    8.2227  -13.1307    0.0000 C   0  0  0  0  0  0  0  0  0  0  0  0
    7.5091  -13.5411    0.0000 C   0  0  0  0  0  0  0  0  0  0  0  0
    7.5087  -14.3624    0.0000 C   0  0  0  0  0  0  0  0  0  0  0  0
    8.2211  -14.7743    0.0000 C   0  0  0  0  0  0  0  0  0  0  0  0
    8.9355  -14.3590    0.0000 C   0  0  0  0  0  0  0  0  0  0  0  0
    8.9324  -13.5390    0.0000 C   0  0  0  0  0  0  0  0  0  0  0  0
  2  1  1  6  0  0  0
  2  3  1  1  0  0  0
  5  4  1  0  0  0  0
  4  6  1  0  0  0  0
  2  5  1  0  0  0  0
  8  2  1  0  0  0  0
  7  6  1  0  0  0  0
  7  8  1  0  0  0  0
 11  7  1  1  0  0  0
  8  9  1  1  0  0  0
 10  9  1  0  0  0  0
 12 10  1  0  0  0  0
 11 12  1  0  0  0  0
 11 14  1  0  0  0  0
 12 13  1  0  0  0  0
 13 16  1  0  0  0  0
 14 15  1  0  0  0  0
 15 16  2  0  0  0  0
 15 20  1  0  0  0  0
 16 17  1  0  0  0  0
 17 18  2  0  0  0  0
 18 19  1  0  0  0  0
 19 20  1  0  0  0  0
 21 22  2  0  0  0  0
 22 23  1  0  0  0  0
 23 24  2  0  0  0  0
 24 25  1  0  0  0  0
 25 26  2  0  0  0  0
 26 21  1  0  0  0  0
 18 21  1  0  0  0  0
 20 27  2  0  0  0  0
 10 28  1  1  0  0  0
 28 29  1  0  0  0  0
 29 30  1  0  0  0  0
 29 31  2  0  0  0  0
  5 32  1  1  0  0  0
 32 33  1  0  0  0  0
 33 34  1  0  0  0  0
 33 35  2  0  0  0  0
  1 36  1  0  0  0  0
 36 37  1  0  0  0  0
 37 38  1  0  0  0  0
 37 39  2  0  0  0  0
 14 40  1  1  0  0  0
  7 41  1  1  0  0  0
 12 42  1  1  0  0  0
 30 43  1  0  0  0  0
 43 47  2  0  0  0  0
 46 44  2  0  0  0  0
 44 45  1  0  0  0  0
 45 30  2  0  0  0  0
 46 47  1  0  0  0  0
 47 48  1  0  0  0  0
 48 49  2  0  0  0  0
 49 50  1  0  0  0  0
 50 51  2  0  0  0  0
 51 46  1  0  0  0  0
M  END
> <From>
www.bindingDB.org

> <BindingDB Reactant_set_id>
51053300

> <Ligand InChI>
InChI=1S/C40H41NO10/c1-22(42)47-21-39(4)30-19-32(50-36(45)26-13-12-24-9-6-7-10-25(24)17-26)40(5)35(38(30,3)15-14-31(39)48-23(2)43)34(44)33-29(51-40)18-28(49-37(33)46)27-11-8-16-41-20-27/h6-13,16-18,20,30-32,34-35,44H,14-15,19,21H2,1-5H3/t30-,31+,32+,34+,35-,38+,39+,40-/m1/s1

> <Ligand InChI Key>
JBVAWWIORQPHCU-ZGSMWJSFSA-N

> <BindingDB MonomerID>
50429609

> <BindingDB Ligand Name>
CHEMBL2334223

> <Target Name>
Sterol O-acyltransferase 2

> <Target Source Organism According to Curator or DataSource>


> <Ki (nM)>


> <IC50 (nM)>
 19

> <Kd (nM)>


> <EC50 (nM)>


> <kon (M-1-s-1)>


> <koff (s-1)>


> <pH>


> <Temp (C)>


> <Curation/DataSource>
ChEMBL

> <Article DOI>
10.1016/j.bmcl.2012.12.099

> <BindingDB Entry DOI>
10.7270/Q2P270HW

> <PMID>
23369538

> <PubChem AID>


> <Patent Number>


> <Authors>
Ohtawa, M; Yamazaki, H; Ohte, S; Matsuda, D; Ohshiro, T; Rudel, LL; Omura, S; Tomoda, H; Nagamitsu, T

> <Institution>
Kitasato University

> <Link to Ligand in BindingDB>
http://www.bindingdb.org/bind/chemsearch/marvin/MolStructure.jsp?monomerid=50429609

> <Link to Target in BindingDB>
http://www.bindingdb.org/jsp/dbsearch/PrimarySearch_ki.jsp?energyterm=kJ/mole&tag=pol&polymerid=7773&target=Sterol+O-acyltransferase+2&column=ki&startPg=0&Increment=50&submit=Search

> <Link to Ligand-Target Pair in BindingDB>
http://www.bindingdb.org/jsp/dbsearch/PrimarySearch_ki.jsp?energyterm=kJ/mole&tag=r21&monomerid=50429609&enzyme=Sterol+O-acyltransferase+2&column=ki&startPg=0&Increment=50&submit=Search

> <Ligand HET ID in PDB>


> <PDB ID(s) for Ligand-Target Complex>


> <PubChem CID>
71560550

> <PubChem SID>
164158484

> <ChEBI ID of Ligand>


> <ChEMBL ID of Ligand>
CHEMBL2334223

> <DrugBank ID of Ligand>


> <IUPHAR_GRAC ID of Ligand>


> <KEGG ID of Ligand>


> <ZINC ID of Ligand>
ZINC95587745

> <Number of Protein Chains in Target (>1 implies a multichain complex)>
1

> <BindingDB Target Chain Sequence>
MEPGGARLRLQRTEGLGGERERQPCGDGNTETHRAPDLVQWTRHMEAVKAQLLEQAQGQLRELLDRAMREAIQSYPSQDKPLPPPPPGSLSRTQEPSLGKQKVFIIRKSLLDELMEVQHFRTIYHMFIAGLCVFIISTLAIDFIDEGRLLLEFDLLIFSFGQLPLALVTWVPMFLSTLLAPYQALRLWARGTWTQATGLGCALLAAHAVVLCALPVHVAVEHQLPPASRCVLVFEQVRFLMKSYSFLREAVPGTLRARRGEGIQAPSFSSYLYFLFCPTLIYRETYPRTPYVRWNYVAKNFAQALGCVLYACFILGRLCVPVFANMSREPFSTRALVLSILHATLPGIFMLLLIFFAFLHCWLNAFAEMLRFGDRMFYRDWWNSTSFSNYYRTWNVVVHDWLYSYVYQDGLRLLGARARGVAMLGVFLVSAVAHEYIFCFVLGFFYPVMLILFLVIGGMLNFMMHDQRTGPAWNVLMWTMLFLGQGIQVSLYCQEWYARRHCPLPQATFWGLVTPRSWSCHT

> <PDB ID(s) of Target Chain>


> <UniProt (SwissProt) Recommended Name of Target Chain>
Sterol O-acyltransferase 2

> <UniProt (SwissProt) Entry Name of Target Chain>
ACAT-2

> <UniProt (SwissProt) Primary ID of Target Chain>
O75908

> <UniProt (SwissProt) Secondary ID(s) of Target Chain>
F5H7W4 I6L9H9 Q4VB99 Q4VBA1 Q96TD4 Q9UNR2

> <UniProt (SwissProt) Alternative ID(s) of Target Chain>


> <UniProt (TrEMBL) Submitted Name of Target Chain>


> <UniProt (TrEMBL) Entry Name of Target Chain>


> <UniProt (TrEMBL) Primary ID of Target Chain>


> <UniProt (TrEMBL) Secondary ID(s) of Target Chain>


> <UniProt (TrEMBL) Alternative ID(s) of Target Chain>


$$$$

  Mrv0541 11241418062D          

 49 56  0  0  0  0            999 V2000
    1.6557  -18.8055    0.0000 C   0  0  0  0  0  0  0  0  0  0  0  0
    2.3685  -18.3884    0.0000 C   0  0  0  0  0  0  0  0  0  0  0  0
    3.0812  -18.8055    0.0000 C   0  0  1  0  0  0  0  0  0  0  0  0
    3.0822  -19.6313    0.0000 C   0  0  1  0  0  0  0  0  0  0  0  0
    3.7939  -20.0409    0.0000 C   0  0  0  0  0  0  0  0  0  0  0  0
    4.5091  -19.6295    0.0000 C   0  0  1  0  0  0  0  0  0  0  0  0
    3.7918  -18.3893    0.0000 C   0  0  2  0  0  0  0  0  0  0  0  0
    4.5038  -18.8059    0.0000 C   0  0  2  0  0  0  0  0  0  0  0  0
    5.2166  -18.3999    0.0000 O   0  0  0  0  0  0  0  0  0  0  0  0
    3.7926  -17.5668    0.0000 C   0  0  2  0  0  0  0  0  0  0  0  0
    2.3685  -20.0399    0.0000 C   0  0  1  0  0  0  0  0  0  0  0  0
    1.6557  -19.6313    0.0000 C   0  0  1  0  0  0  0  0  0  0  0  0
    0.9494  -20.0418    0.0000 O   0  0  0  0  0  0  0  0  0  0  0  0
    0.9495  -20.8628    0.0000 C   0  0  1  0  0  0  0  0  0  0  0  0
    1.6622  -21.2716    0.0000 O   0  0  0  0  0  0  0  0  0  0  0  0
    2.3747  -20.8593    0.0000 C   0  0  0  0  0  0  0  0  0  0  0  0
    4.5117  -17.1590    0.0000 C   0  0  0  0  0  0  0  0  0  0  0  0
    5.2221  -17.5772    0.0000 C   0  0  0  0  0  0  0  0  0  0  0  0
    5.9354  -17.1733    0.0000 C   0  0  0  0  0  0  0  0  0  0  0  0
    5.9445  -16.3496    0.0000 C   0  0  0  0  0  0  0  0  0  0  0  0
    5.2341  -15.9315    0.0000 O   0  0  0  0  0  0  0  0  0  0  0  0
    4.5146  -16.3371    0.0000 C   0  0  0  0  0  0  0  0  0  0  0  0
    3.8023  -15.9191    0.0000 O   0  0  0  0  0  0  0  0  0  0  0  0
    3.0793  -17.1508    0.0000 O   0  0  0  0  0  0  0  0  0  0  0  0
    4.4960  -17.9797    0.0000 C   0  0  0  0  0  0  0  0  0  0  0  0
    5.2254  -20.0405    0.0000 O   0  0  0  0  0  0  0  0  0  0  0  0
    3.0738  -17.9797    0.0000 C   0  0  0  0  0  0  0  0  0  0  0  0
    2.3606  -19.2141    0.0000 C   0  0  0  0  0  0  0  0  0  0  0  0
    5.9394  -19.6258    0.0000 C   0  0  0  0  0  0  0  0  0  0  0  0
    6.6557  -20.0369    0.0000 C   0  0  0  0  0  0  0  0  0  0  0  0
    5.9374  -18.8000    0.0000 O   0  0  0  0  0  0  0  0  0  0  0  0
    6.6557  -20.8627    0.0000 C   0  0  0  0  0  0  0  0  0  0  0  0
    7.3710  -21.2737    0.0000 C   0  0  0  0  0  0  0  0  0  0  0  0
    8.0861  -20.8590    0.0000 C   0  0  0  0  0  0  0  0  0  0  0  0
    8.0813  -20.0289    0.0000 C   0  0  0  0  0  0  0  0  0  0  0  0
    7.3655  -19.6216    0.0000 C   0  0  0  0  0  0  0  0  0  0  0  0
    6.6640  -15.9444    0.0000 C   0  0  0  0  0  0  0  0  0  0  0  0
    7.3754  -16.3660    0.0000 C   0  0  0  0  0  0  0  0  0  0  0  0
    8.0941  -15.9608    0.0000 N   0  0  0  0  0  0  0  0  0  0  0  0
    8.1026  -15.1342    0.0000 C   0  0  0  0  0  0  0  0  0  0  0  0
    7.3864  -14.7144    0.0000 C   0  0  0  0  0  0  0  0  0  0  0  0
    6.6706  -15.1220    0.0000 C   0  0  0  0  0  0  0  0  0  0  0  0
    7.3727  -22.0995    0.0000 Cl  0  0  0  0  0  0  0  0  0  0  0  0
    0.2356  -21.2764    0.0000 C   0  0  0  0  0  0  0  0  0  0  0  0
   -0.4788  -20.8638    0.0000 C   0  0  0  0  0  0  0  0  0  0  0  0
   -1.1933  -21.2764    0.0000 C   0  0  0  0  0  0  0  0  0  0  0  0
   -1.1933  -22.1014    0.0000 C   0  0  0  0  0  0  0  0  0  0  0  0
   -0.4788  -22.5139    0.0000 C   0  0  0  0  0  0  0  0  0  0  0  0
    0.2356  -22.1014    0.0000 C   0  0  0  0  0  0  0  0  0  0  0  0
 12  1  1  0  0  0  0
  1  2  1  0  0  0  0
  4 11  1  0  0  0  0
  3  2  1  0  0  0  0
  3  4  1  0  0  0  0
  7  3  1  1  0  0  0
  4  5  1  1  0  0  0
  6  5  1  0  0  0  0
  8  6  1  0  0  0  0
  7  8  1  0  0  0  0
  7 10  1  0  0  0  0
  8  9  1  0  0  0  0
  9 18  1  0  0  0  0
 10 17  1  0  0  0  0
 11 12  1  0  0  0  0
 11 16  1  0  0  0  0
 12 13  1  1  0  0  0
 14 13  1  0  0  0  0
 14 15  1  0  0  0  0
 15 16  1  0  0  0  0
 17 18  2  0  0  0  0
 17 22  1  0  0  0  0
 18 19  1  0  0  0  0
 19 20  2  0  0  0  0
 20 21  1  0  0  0  0
 21 22  1  0  0  0  0
 22 23  2  0  0  0  0
 10 24  1  1  0  0  0
  8 25  1  1  0  0  0
  6 26  1  1  0  0  0
  3 27  1  1  0  0  0
 11 28  1  1  0  0  0
 26 29  1  0  0  0  0
 29 30  1  0  0  0  0
 29 31  2  0  0  0  0
 30 32  2  0  0  0  0
 32 33  1  0  0  0  0
 33 34  2  0  0  0  0
 34 35  1  0  0  0  0
 35 36  2  0  0  0  0
 36 30  1  0  0  0  0
 37 38  2  0  0  0  0
 38 39  1  0  0  0  0
 39 40  2  0  0  0  0
 40 41  1  0  0  0  0
 41 42  2  0  0  0  0
 42 37  1  0  0  0  0
 20 37  1  0  0  0  0
 33 43  1  0  0  0  0
 14 44  1  1  0  0  0
 49 44  2  0  0  0  0
 45 44  1  0  0  0  0
 45 46  2  0  0  0  0
 46 47  1  0  0  0  0
 47 48  2  0  0  0  0
 48 49  1  0  0  0  0
M  END
> <From>
www.bindingDB.org

> <BindingDB Reactant_set_id>
51068425

> <Ligand InChI>
InChI=1S/C39H38ClNO8/c1-37-15-14-29-38(2,21-45-36(48-29)22-9-5-4-6-10-22)28(37)19-30(47-34(43)23-11-7-13-25(40)17-23)39(3)33(37)32(42)31-27(49-39)18-26(46-35(31)44)24-12-8-16-41-20-24/h4-13,16-18,20,28-30,32-33,36,42H,14-15,19,21H2,1-3H3/t28-,29+,30+,32+,33-,36-,37+,38+,39-/m1/s1

> <Ligand InChI Key>
JBZIAQMBDHYAAJ-MKSFZIRSSA-N

> <BindingDB MonomerID>
50436338

> <BindingDB Ligand Name>
CHEMBL2396679

> <Target Name>
Sterol O-acyltransferase 2

> <Target Source Organism According to Curator or DataSource>


> <Ki (nM)>


> <IC50 (nM)>
 19

> <Kd (nM)>


> <EC50 (nM)>


> <kon (M-1-s-1)>


> <koff (s-1)>


> <pH>


> <Temp (C)>


> <Curation/DataSource>
ChEMBL

> <Article DOI>
10.1016/j.bmcl.2013.04.075

> <BindingDB Entry DOI>
10.7270/Q2WD41Z9

> <PMID>
23711919

> <PubChem AID>


> <Patent Number>


> <Authors>
Ohtawa, M; Yamazaki, H; Ohte, S; Matsuda, D; Ohshiro, T; Rudel, LL; Omura, S; Tomoda, H; Nagamitsu, T

> <Institution>
Kitasato University

> <Link to Ligand in BindingDB>
http://www.bindingdb.org/bind/chemsearch/marvin/MolStructure.jsp?monomerid=50436338

> <Link to Target in BindingDB>
http://www.bindingdb.org/jsp/dbsearch/PrimarySearch_ki.jsp?energyterm=kJ/mole&tag=pol&polymerid=7773&target=Sterol+O-acyltransferase+2&column=ki&startPg=0&Increment=50&submit=Search

> <Link to Ligand-Target Pair in BindingDB>
http://www.bindingdb.org/jsp/dbsearch/PrimarySearch_ki.jsp?energyterm=kJ/mole&tag=r21&monomerid=50436338&enzyme=Sterol+O-acyltransferase+2&column=ki&startPg=0&Increment=50&submit=Search

> <Ligand HET ID in PDB>


> <PDB ID(s) for Ligand-Target Complex>


> <PubChem CID>
71682351

> <PubChem SID>
175448655

> <ChEBI ID of Ligand>


> <ChEMBL ID of Ligand>
CHEMBL2396679

> <DrugBank ID of Ligand>


> <IUPHAR_GRAC ID of Ligand>


> <KEGG ID of Ligand>


> <ZINC ID of Ligand>
ZINC96272251

> <Number of Protein Chains in Target (>1 implies a multichain complex)>
1

> <BindingDB Target Chain Sequence>
MEPGGARLRLQRTEGLGGERERQPCGDGNTETHRAPDLVQWTRHMEAVKAQLLEQAQGQLRELLDRAMREAIQSYPSQDKPLPPPPPGSLSRTQEPSLGKQKVFIIRKSLLDELMEVQHFRTIYHMFIAGLCVFIISTLAIDFIDEGRLLLEFDLLIFSFGQLPLALVTWVPMFLSTLLAPYQALRLWARGTWTQATGLGCALLAAHAVVLCALPVHVAVEHQLPPASRCVLVFEQVRFLMKSYSFLREAVPGTLRARRGEGIQAPSFSSYLYFLFCPTLIYRETYPRTPYVRWNYVAKNFAQALGCVLYACFILGRLCVPVFANMSREPFSTRALVLSILHATLPGIFMLLLIFFAFLHCWLNAFAEMLRFGDRMFYRDWWNSTSFSNYYRTWNVVVHDWLYSYVYQDGLRLLGARARGVAMLGVFLVSAVAHEYIFCFVLGFFYPVMLILFLVIGGMLNFMMHDQRTGPAWNVLMWTMLFLGQGIQVSLYCQEWYARRHCPLPQATFWGLVTPRSWSCHT

> <PDB ID(s) of Target Chain>


> <UniProt (SwissProt) Recommended Name of Target Chain>
Sterol O-acyltransferase 2

> <UniProt (SwissProt) Entry Name of Target Chain>
ACAT-2

> <UniProt (SwissProt) Primary ID of Target Chain>
O75908

> <UniProt (SwissProt) Secondary ID(s) of Target Chain>
F5H7W4 I6L9H9 Q4VB99 Q4VBA1 Q96TD4 Q9UNR2

> <UniProt (SwissProt) Alternative ID(s) of Target Chain>


> <UniProt (TrEMBL) Submitted Name of Target Chain>


> <UniProt (TrEMBL) Entry Name of Target Chain>


> <UniProt (TrEMBL) Primary ID of Target Chain>


> <UniProt (TrEMBL) Secondary ID(s) of Target Chain>


> <UniProt (TrEMBL) Alternative ID(s) of Target Chain>


$$$$

  Mrv0541 11241417102D          

 52 58  0  0  0  0            999 V2000
   21.2463  -12.0461    0.0000 F   0  0  0  0  0  0  0  0  0  0  0  0
   20.5338  -12.4628    0.0000 C   0  0  0  0  0  0  0  0  0  0  0  0
   21.2510  -12.8715    0.0000 F   0  0  0  0  0  0  0  0  0  0  0  0
   13.9628  -12.7712    0.0000 C   0  0  0  0  0  0  0  0  0  0  0  0
   13.5545  -12.0586    0.0000 C   0  0  2  0  0  0  0  0  0  0  0  0
   13.1416  -12.7686    0.0000 C   0  0  0  0  0  0  0  0  0  0  0  0
   12.8461  -10.8252    0.0000 C   0  0  0  0  0  0  0  0  0  0  0  0
   12.8461  -11.6502    0.0000 C   0  0  2  0  0  0  0  0  0  0  0  0
   13.5582  -10.4086    0.0000 C   0  0  0  0  0  0  0  0  0  0  0  0
   14.2702  -10.8252    0.0000 C   0  0  1  0  0  0  0  0  0  0  0  0
   14.2712  -11.6502    0.0000 C   0  0  1  0  0  0  0  0  0  0  0  0
   14.9824  -12.0596    0.0000 C   0  0  0  0  0  0  0  0  0  0  0  0
   15.6969  -11.6484    0.0000 C   0  0  1  0  0  0  0  0  0  0  0  0
   14.9802  -10.4096    0.0000 C   0  0  2  0  0  0  0  0  0  0  0  0
   15.6954  -10.8280    0.0000 C   0  0  2  0  0  0  0  0  0  0  0  0
   16.4115  -10.4202    0.0000 O   0  0  0  0  0  0  0  0  0  0  0  0
   14.9811   -9.5831    0.0000 C   0  0  2  0  0  0  0  0  0  0  0  0
   15.7034   -9.1736    0.0000 C   0  0  0  0  0  0  0  0  0  0  0  0
   16.4215   -9.5959    0.0000 C   0  0  0  0  0  0  0  0  0  0  0  0
   17.1422   -9.1873    0.0000 C   0  0  0  0  0  0  0  0  0  0  0  0
   17.1510   -8.3549    0.0000 C   0  0  0  0  0  0  0  0  0  0  0  0
   16.4329   -7.9327    0.0000 O   0  0  0  0  0  0  0  0  0  0  0  0
   15.7059   -8.3429    0.0000 C   0  0  0  0  0  0  0  0  0  0  0  0
   17.8648   -7.9506    0.0000 C   0  0  0  0  0  0  0  0  0  0  0  0
   18.5758   -8.3715    0.0000 C   0  0  0  0  0  0  0  0  0  0  0  0
   19.2936   -7.9663    0.0000 N   0  0  0  0  0  0  0  0  0  0  0  0
   19.3017   -7.1405    0.0000 C   0  0  0  0  0  0  0  0  0  0  0  0
   18.5860   -6.7215    0.0000 C   0  0  0  0  0  0  0  0  0  0  0  0
   17.8711   -7.1290    0.0000 C   0  0  0  0  0  0  0  0  0  0  0  0
   14.9942   -7.9257    0.0000 O   0  0  0  0  0  0  0  0  0  0  0  0
   16.4114  -12.0608    0.0000 O   0  0  0  0  0  0  0  0  0  0  0  0
   17.1259  -11.6482    0.0000 C   0  0  0  0  0  0  0  0  0  0  0  0
   17.8404  -12.0606    0.0000 C   0  0  0  0  0  0  0  0  0  0  0  0
   17.1258  -10.8232    0.0000 O   0  0  0  0  0  0  0  0  0  0  0  0
   12.1322  -12.0639    0.0000 O   0  0  0  0  0  0  0  0  0  0  0  0
   11.4171  -11.6524    0.0000 C   0  0  0  0  0  0  0  0  0  0  0  0
   10.7033  -12.0659    0.0000 C   0  0  0  0  0  0  0  0  0  0  0  0
   11.4159  -10.8273    0.0000 O   0  0  0  0  0  0  0  0  0  0  0  0
   13.5481  -13.4844    0.0000 O   0  0  0  0  0  0  0  0  0  0  0  0
   13.9582  -14.2001    0.0000 C   0  0  0  0  0  0  0  0  0  0  0  0
   13.5435  -14.9133    0.0000 C   0  0  0  0  0  0  0  0  0  0  0  0
   14.7833  -14.2028    0.0000 O   0  0  0  0  0  0  0  0  0  0  0  0
   14.2684   -9.1675    0.0000 O   0  0  0  0  0  0  0  0  0  0  0  0
   14.2628  -10.0002    0.0000 C   0  0  0  0  0  0  0  0  0  0  0  0
   15.6879  -10.0002    0.0000 C   0  0  0  0  0  0  0  0  0  0  0  0
   17.8352  -12.8848    0.0000 C   0  0  0  0  0  0  0  0  0  0  0  0
   18.5490  -13.2971    0.0000 C   0  0  0  0  0  0  0  0  0  0  0  0
   18.5473  -11.6465    0.0000 C   0  0  0  0  0  0  0  0  0  0  0  0
   19.2616  -12.0551    0.0000 C   0  0  0  0  0  0  0  0  0  0  0  0
   19.2652  -12.8827    0.0000 C   0  0  0  0  0  0  0  0  0  0  0  0
   20.0535  -13.1352    0.0000 O   0  0  0  0  0  0  0  0  0  0  0  0
   20.0477  -11.7960    0.0000 O   0  0  0  0  0  0  0  0  0  0  0  0
  2  1  1  0  0  0  0
  3  2  1  0  0  0  0
  5  4  1  6  0  0  0
  5  6  1  1  0  0  0
  8  7  1  0  0  0  0
  7  9  1  0  0  0  0
  5  8  1  0  0  0  0
 11  5  1  0  0  0  0
 10  9  1  0  0  0  0
 10 11  1  0  0  0  0
 14 10  1  1  0  0  0
 11 12  1  1  0  0  0
 13 12  1  0  0  0  0
 15 13  1  0  0  0  0
 14 15  1  0  0  0  0
 14 17  1  0  0  0  0
 15 16  1  0  0  0  0
 16 19  1  0  0  0  0
 17 18  1  0  0  0  0
 18 19  2  0  0  0  0
 18 23  1  0  0  0  0
 19 20  1  0  0  0  0
 20 21  2  0  0  0  0
 21 22  1  0  0  0  0
 22 23  1  0  0  0  0
 24 25  2  0  0  0  0
 25 26  1  0  0  0  0
 26 27  2  0  0  0  0
 27 28  1  0  0  0  0
 28 29  2  0  0  0  0
 29 24  1  0  0  0  0
 21 24  1  0  0  0  0
 23 30  2  0  0  0  0
 13 31  1  1  0  0  0
 31 32  1  0  0  0  0
 32 33  1  0  0  0  0
 32 34  2  0  0  0  0
  8 35  1  1  0  0  0
 35 36  1  0  0  0  0
 36 37  1  0  0  0  0
 36 38  2  0  0  0  0
  4 39  1  0  0  0  0
 39 40  1  0  0  0  0
 40 41  1  0  0  0  0
 40 42  2  0  0  0  0
 17 43  1  1  0  0  0
 10 44  1  1  0  0  0
 15 45  1  1  0  0  0
 33 46  2  0  0  0  0
 46 47  1  0  0  0  0
 47 50  2  0  0  0  0
 49 48  2  0  0  0  0
 48 33  1  0  0  0  0
 49 50  1  0  0  0  0
 50 51  1  0  0  0  0
 51  2  1  0  0  0  0
  2 52  1  0  0  0  0
 52 49  1  0  0  0  0
M  END
> <From>
www.bindingDB.org

> <BindingDB Reactant_set_id>
51053299

> <Ligand InChI>
InChI=1S/C37H37F2NO12/c1-18(41)46-17-35(4)26-15-28(49-32(44)20-8-9-22-24(13-20)52-37(38,39)51-22)36(5)31(34(26,3)11-10-27(35)47-19(2)42)30(43)29-25(50-36)14-23(48-33(29)45)21-7-6-12-40-16-21/h6-9,12-14,16,26-28,30-31,43H,10-11,15,17H2,1-5H3/t26-,27+,28+,30+,31-,34+,35+,36-/m1/s1

> <Ligand InChI Key>
XHTFSTRYINTHEU-HRSZXCBJSA-N

> <BindingDB MonomerID>
50429608

> <BindingDB Ligand Name>
CHEMBL2334224

> <Target Name>
Sterol O-acyltransferase 2

> <Target Source Organism According to Curator or DataSource>


> <Ki (nM)>


> <IC50 (nM)>
 20

> <Kd (nM)>


> <EC50 (nM)>


> <kon (M-1-s-1)>


> <koff (s-1)>


> <pH>


> <Temp (C)>


> <Curation/DataSource>
ChEMBL

> <Article DOI>
10.1016/j.bmcl.2012.12.099

> <BindingDB Entry DOI>
10.7270/Q2P270HW

> <PMID>
23369538

> <PubChem AID>


> <Patent Number>


> <Authors>
Ohtawa, M; Yamazaki, H; Ohte, S; Matsuda, D; Ohshiro, T; Rudel, LL; Omura, S; Tomoda, H; Nagamitsu, T

> <Institution>
Kitasato University

> <Link to Ligand in BindingDB>
http://www.bindingdb.org/bind/chemsearch/marvin/MolStructure.jsp?monomerid=50429608

> <Link to Target in BindingDB>
http://www.bindingdb.org/jsp/dbsearch/PrimarySearch_ki.jsp?energyterm=kJ/mole&tag=pol&polymerid=7773&target=Sterol+O-acyltransferase+2&column=ki&startPg=0&Increment=50&submit=Search

> <Link to Ligand-Target Pair in BindingDB>
http://www.bindingdb.org/jsp/dbsearch/PrimarySearch_ki.jsp?energyterm=kJ/mole&tag=r21&monomerid=50429608&enzyme=Sterol+O-acyltransferase+2&column=ki&startPg=0&Increment=50&submit=Search

> <Ligand HET ID in PDB>


> <PDB ID(s) for Ligand-Target Complex>


> <PubChem CID>
71560551

> <PubChem SID>
164158483

> <ChEBI ID of Ligand>


> <ChEMBL ID of Ligand>
CHEMBL2334224

> <DrugBank ID of Ligand>


> <IUPHAR_GRAC ID of Ligand>


> <KEGG ID of Ligand>


> <ZINC ID of Ligand>
ZINC95591615

> <Number of Protein Chains in Target (>1 implies a multichain complex)>
1

> <BindingDB Target Chain Sequence>
MEPGGARLRLQRTEGLGGERERQPCGDGNTETHRAPDLVQWTRHMEAVKAQLLEQAQGQLRELLDRAMREAIQSYPSQDKPLPPPPPGSLSRTQEPSLGKQKVFIIRKSLLDELMEVQHFRTIYHMFIAGLCVFIISTLAIDFIDEGRLLLEFDLLIFSFGQLPLALVTWVPMFLSTLLAPYQALRLWARGTWTQATGLGCALLAAHAVVLCALPVHVAVEHQLPPASRCVLVFEQVRFLMKSYSFLREAVPGTLRARRGEGIQAPSFSSYLYFLFCPTLIYRETYPRTPYVRWNYVAKNFAQALGCVLYACFILGRLCVPVFANMSREPFSTRALVLSILHATLPGIFMLLLIFFAFLHCWLNAFAEMLRFGDRMFYRDWWNSTSFSNYYRTWNVVVHDWLYSYVYQDGLRLLGARARGVAMLGVFLVSAVAHEYIFCFVLGFFYPVMLILFLVIGGMLNFMMHDQRTGPAWNVLMWTMLFLGQGIQVSLYCQEWYARRHCPLPQATFWGLVTPRSWSCHT

> <PDB ID(s) of Target Chain>


> <UniProt (SwissProt) Recommended Name of Target Chain>
Sterol O-acyltransferase 2

> <UniProt (SwissProt) Entry Name of Target Chain>
ACAT-2

> <UniProt (SwissProt) Primary ID of Target Chain>
O75908

> <UniProt (SwissProt) Secondary ID(s) of Target Chain>
F5H7W4 I6L9H9 Q4VB99 Q4VBA1 Q96TD4 Q9UNR2

> <UniProt (SwissProt) Alternative ID(s) of Target Chain>


> <UniProt (TrEMBL) Submitted Name of Target Chain>


> <UniProt (TrEMBL) Entry Name of Target Chain>


> <UniProt (TrEMBL) Primary ID of Target Chain>


> <UniProt (TrEMBL) Secondary ID(s) of Target Chain>


> <UniProt (TrEMBL) Alternative ID(s) of Target Chain>


$$$$

  Mrv0541 11241418062D          

 46 52  0  0  0  0            999 V2000
   13.5350   -5.2202    0.0000 C   0  0  0  0  0  0  0  0  0  0  0  0
    9.2341   -6.0063    0.0000 O   0  0  0  0  0  0  0  0  0  0  0  0
   11.3913   -4.7869    0.0000 O   0  0  0  0  0  0  0  0  0  0  0  0
    9.2371   -8.4914    0.0000 C   0  0  2  0  0  0  0  0  0  0  0  0
   12.1025   -5.2037    0.0000 C   0  0  0  0  0  0  0  0  0  0  0  0
    9.9579   -4.7745    0.0000 O   0  0  0  0  0  0  0  0  0  0  0  0
    9.9495   -8.9040    0.0000 C   0  0  0  0  0  0  0  0  0  0  0  0
   10.6711   -5.1911    0.0000 C   0  0  0  0  0  0  0  0  0  0  0  0
    9.9482   -6.4252    0.0000 C   0  0  1  0  0  0  0  0  0  0  0  0
   11.3738   -7.2599    0.0000 O   0  0  0  0  0  0  0  0  0  0  0  0
   10.6681   -6.0147    0.0000 C   0  0  0  0  0  0  0  0  0  0  0  0
    9.2360   -7.6641    0.0000 C   0  0  2  0  0  0  0  0  0  0  0  0
   14.2545   -4.8163    0.0000 N   0  0  0  0  0  0  0  0  0  0  0  0
   12.0954   -7.6587    0.0000 O   0  0  0  0  0  0  0  0  0  0  0  0
    8.5184   -7.2483    0.0000 C   0  0  0  0  0  0  0  0  0  0  0  0
   12.8229   -4.7999    0.0000 C   0  0  0  0  0  0  0  0  0  0  0  0
    7.8048   -7.6641    0.0000 C   0  0  0  0  0  0  0  0  0  0  0  0
   11.3792   -6.4357    0.0000 C   0  0  0  0  0  0  0  0  0  0  0  0
   11.3827   -8.9036    0.0000 O   0  0  0  0  0  0  0  0  0  0  0  0
   12.8296   -3.9760    0.0000 C   0  0  0  0  0  0  0  0  0  0  0  0
   10.6655   -8.4896    0.0000 C   0  0  2  0  0  0  0  0  0  0  0  0
    9.9474   -7.2494    0.0000 C   0  0  2  0  0  0  0  0  0  0  0  0
   14.2631   -3.9882    0.0000 C   0  0  0  0  0  0  0  0  0  0  0  0
   10.6602   -7.6646    0.0000 C   0  0  2  0  0  0  0  0  0  0  0  0
    9.2286   -6.8367    0.0000 C   0  0  0  0  0  0  0  0  0  0  0  0
   10.6523   -6.8367    0.0000 C   0  0  0  0  0  0  0  0  0  0  0  0
   12.0974   -8.4860    0.0000 C   0  0  0  0  0  0  0  0  0  0  0  0
   12.0934   -6.0289    0.0000 C   0  0  0  0  0  0  0  0  0  0  0  0
   13.5461   -3.5649    0.0000 C   0  0  0  0  0  0  0  0  0  0  0  0
   12.8144   -8.9000    0.0000 C   0  0  0  0  0  0  0  0  0  0  0  0
   12.8144   -9.7236    0.0000 C   0  0  0  0  0  0  0  0  0  0  0  0
   13.5276  -10.1353    0.0000 C   0  0  0  0  0  0  0  0  0  0  0  0
   13.5276  -10.9589    0.0000 C   0  0  0  0  0  0  0  0  0  0  0  0
    8.5167   -8.9037    0.0000 C   0  0  1  0  0  0  0  0  0  0  0  0
    7.8048   -8.4914    0.0000 C   0  0  1  0  0  0  0  0  0  0  0  0
    7.0958   -8.8996    0.0000 O   0  0  0  0  0  0  0  0  0  0  0  0
    7.0923   -9.7216    0.0000 C   0  0  1  0  0  0  0  0  0  0  0  0
    7.8042  -10.1339    0.0000 O   0  0  0  0  0  0  0  0  0  0  0  0
    8.5196   -9.7242    0.0000 C   0  0  0  0  0  0  0  0  0  0  0  0
    9.2254   -9.3128    0.0000 C   0  0  0  0  0  0  0  0  0  0  0  0
    6.3780  -10.1314    0.0000 C   0  0  0  0  0  0  0  0  0  0  0  0
    5.6703   -9.7150    0.0000 C   0  0  0  0  0  0  0  0  0  0  0  0
    4.9565  -10.1242    0.0000 C   0  0  0  0  0  0  0  0  0  0  0  0
    4.9537  -10.9486    0.0000 C   0  0  0  0  0  0  0  0  0  0  0  0
    5.6709  -11.3621    0.0000 C   0  0  0  0  0  0  0  0  0  0  0  0
    6.3818  -10.9506    0.0000 C   0  0  0  0  0  0  0  0  0  0  0  0
 35 17  1  0  0  0  0
 19 27  1  0  0  0  0
 22  9  1  1  0  0  0
 20 16  2  0  0  0  0
  4 34  1  0  0  0  0
  4  7  1  1  0  0  0
 12  4  1  0  0  0  0
 18 28  1  0  0  0  0
 11  8  1  0  0  0  0
 27 14  2  0  0  0  0
 24 21  1  0  0  0  0
 22 12  1  0  0  0  0
 13 23  1  0  0  0  0
 12 15  1  0  0  0  0
  5 16  1  0  0  0  0
  1 13  2  0  0  0  0
 16  1  1  0  0  0  0
  8  6  2  0  0  0  0
 24 10  1  0  0  0  0
 22 24  1  0  0  0  0
 21 19  1  1  0  0  0
  9 11  1  0  0  0  0
 11 18  2  0  0  0  0
 23 29  2  0  0  0  0
 10 18  1  0  0  0  0
 27 30  1  0  0  0  0
  9  2  1  1  0  0  0
 29 20  1  0  0  0  0
 28  5  2  0  0  0  0
  3  8  1  0  0  0  0
  5  3  1  0  0  0  0
 17 15  1  0  0  0  0
 12 25  1  1  0  0  0
 21  7  1  0  0  0  0
 24 26  1  1  0  0  0
 30 31  1  0  0  0  0
 31 32  1  0  0  0  0
 32 33  1  0  0  0  0
 34 35  1  0  0  0  0
 34 39  1  0  0  0  0
 35 36  1  1  0  0  0
 37 36  1  0  0  0  0
 37 38  1  0  0  0  0
 38 39  1  0  0  0  0
 34 40  1  1  0  0  0
 37 41  1  1  0  0  0
 41 42  2  0  0  0  0
 42 43  1  0  0  0  0
 43 44  2  0  0  0  0
 44 45  1  0  0  0  0
 45 46  2  0  0  0  0
 46 41  1  0  0  0  0
M  END
> <From>
www.bindingDB.org

> <BindingDB Reactant_set_id>
51068471

> <Ligand InChI>
InChI=1S/C37H43NO8/c1-5-6-14-29(39)44-28-19-26-35(2,16-15-27-36(26,3)21-42-34(45-27)22-11-8-7-9-12-22)32-31(40)30-25(46-37(28,32)4)18-24(43-33(30)41)23-13-10-17-38-20-23/h7-13,17-18,20,26-28,31-32,34,40H,5-6,14-16,19,21H2,1-4H3/t26-,27+,28+,31+,32-,34-,35+,36+,37-/m1/s1

> <Ligand InChI Key>
KIDFLGQVFJATJP-LHGBKGOFSA-N

> <BindingDB MonomerID>
50436355

> <BindingDB Ligand Name>
CHEMBL2398797

> <Target Name>
Sterol O-acyltransferase 2

> <Target Source Organism According to Curator or DataSource>


> <Ki (nM)>


> <IC50 (nM)>
 20

> <Kd (nM)>


> <EC50 (nM)>


> <kon (M-1-s-1)>


> <koff (s-1)>


> <pH>


> <Temp (C)>


> <Curation/DataSource>
ChEMBL

> <Article DOI>
10.1016/j.bmcl.2013.04.075

> <BindingDB Entry DOI>
10.7270/Q2WD41Z9

> <PMID>
23711919

> <PubChem AID>


> <Patent Number>


> <Authors>
Ohtawa, M; Yamazaki, H; Ohte, S; Matsuda, D; Ohshiro, T; Rudel, LL; Omura, S; Tomoda, H; Nagamitsu, T

> <Institution>
Kitasato University

> <Link to Ligand in BindingDB>
http://www.bindingdb.org/bind/chemsearch/marvin/MolStructure.jsp?monomerid=50436355

> <Link to Target in BindingDB>
http://www.bindingdb.org/jsp/dbsearch/PrimarySearch_ki.jsp?energyterm=kJ/mole&tag=pol&polymerid=7773&target=Sterol+O-acyltransferase+2&column=ki&startPg=0&Increment=50&submit=Search

> <Link to Ligand-Target Pair in BindingDB>
http://www.bindingdb.org/jsp/dbsearch/PrimarySearch_ki.jsp?energyterm=kJ/mole&tag=r21&monomerid=50436355&enzyme=Sterol+O-acyltransferase+2&column=ki&startPg=0&Increment=50&submit=Search

> <Ligand HET ID in PDB>


> <PDB ID(s) for Ligand-Target Complex>


> <PubChem CID>
10100525

> <PubChem SID>
175448672

> <ChEBI ID of Ligand>


> <ChEMBL ID of Ligand>
CHEMBL2398797

> <DrugBank ID of Ligand>


> <IUPHAR_GRAC ID of Ligand>


> <KEGG ID of Ligand>


> <ZINC ID of Ligand>
ZINC96272265

> <Number of Protein Chains in Target (>1 implies a multichain complex)>
1

> <BindingDB Target Chain Sequence>
MEPGGARLRLQRTEGLGGERERQPCGDGNTETHRAPDLVQWTRHMEAVKAQLLEQAQGQLRELLDRAMREAIQSYPSQDKPLPPPPPGSLSRTQEPSLGKQKVFIIRKSLLDELMEVQHFRTIYHMFIAGLCVFIISTLAIDFIDEGRLLLEFDLLIFSFGQLPLALVTWVPMFLSTLLAPYQALRLWARGTWTQATGLGCALLAAHAVVLCALPVHVAVEHQLPPASRCVLVFEQVRFLMKSYSFLREAVPGTLRARRGEGIQAPSFSSYLYFLFCPTLIYRETYPRTPYVRWNYVAKNFAQALGCVLYACFILGRLCVPVFANMSREPFSTRALVLSILHATLPGIFMLLLIFFAFLHCWLNAFAEMLRFGDRMFYRDWWNSTSFSNYYRTWNVVVHDWLYSYVYQDGLRLLGARARGVAMLGVFLVSAVAHEYIFCFVLGFFYPVMLILFLVIGGMLNFMMHDQRTGPAWNVLMWTMLFLGQGIQVSLYCQEWYARRHCPLPQATFWGLVTPRSWSCHT

> <PDB ID(s) of Target Chain>


> <UniProt (SwissProt) Recommended Name of Target Chain>
Sterol O-acyltransferase 2

> <UniProt (SwissProt) Entry Name of Target Chain>
ACAT-2

> <UniProt (SwissProt) Primary ID of Target Chain>
O75908

> <UniProt (SwissProt) Secondary ID(s) of Target Chain>
F5H7W4 I6L9H9 Q4VB99 Q4VBA1 Q96TD4 Q9UNR2

> <UniProt (SwissProt) Alternative ID(s) of Target Chain>


> <UniProt (TrEMBL) Submitted Name of Target Chain>


> <UniProt (TrEMBL) Entry Name of Target Chain>


> <UniProt (TrEMBL) Primary ID of Target Chain>


> <UniProt (TrEMBL) Secondary ID(s) of Target Chain>


> <UniProt (TrEMBL) Alternative ID(s) of Target Chain>


$$$$
00038001.cdx
  Mrv0541 12012113462D          

 49 54  0  0  0  0            999 V2000
    0.9630  -10.1390    0.0000 C   0  0  0  0  0  0  0  0  0  0  0  0
    0.9630  -10.9640    0.0000 C   0  0  1  0  0  0  0  0  0  0  0  0
    1.6775  -11.3765    0.0000 C   0  0  0  0  0  0  0  0  0  0  0  0
    2.3920  -10.9640    0.0000 C   0  0  1  0  0  0  0  0  0  0  0  0
    2.3920  -10.1390    0.0000 C   0  0  2  0  0  0  0  0  0  0  0  0
    1.6775   -9.7265    0.0000 C   0  0  2  0  0  0  0  0  0  0  0  0
    1.6775   -8.9015    0.0000 C   0  0  0  0  0  0  0  0  0  0  0  0
    3.1065   -9.7265    0.0000 O   0  0  0  0  0  0  0  0  0  0  0  0
    0.2486  -11.3765    0.0000 C   0  0  3  0  0  0  0  0  0  0  0  0
   -0.4659  -10.9640    0.0000 C   0  0  0  0  0  0  0  0  0  0  0  0
    0.2486  -12.2015    0.0000 O   0  0  0  0  0  0  0  0  0  0  0  0
    3.1065  -11.3765    0.0000 O   0  0  0  0  0  0  0  0  0  0  0  0
    0.9630   -8.4890    0.0000 O   0  0  0  0  0  0  0  0  0  0  0  0
    2.3920   -8.4890    0.0000 C   0  0  0  0  0  0  0  0  0  0  0  0
    3.1065   -8.9015    0.0000 C   0  0  0  0  0  0  0  0  0  0  0  0
    3.8209   -8.4890    0.0000 C   0  0  0  0  0  0  0  0  0  0  0  0
    2.3920   -9.3140    0.0000 C   0  0  0  0  0  0  0  0  0  0  0  0
    3.8209   -7.6640    0.0000 C   0  0  0  0  0  0  0  0  0  0  0  0
    3.1065   -7.2515    0.0000 O   0  0  0  0  0  0  0  0  0  0  0  0
    2.3920   -7.6640    0.0000 C   0  0  0  0  0  0  0  0  0  0  0  0
    1.6775   -7.2515    0.0000 O   0  0  0  0  0  0  0  0  0  0  0  0
    4.5354   -7.2515    0.0000 C   0  0  0  0  0  0  0  0  0  0  0  0
    5.2499   -7.6640    0.0000 C   0  0  0  0  0  0  0  0  0  0  0  0
    5.9643   -7.2515    0.0000 N   0  0  0  0  0  0  0  0  0  0  0  0
    5.9643   -6.4265    0.0000 C   0  0  0  0  0  0  0  0  0  0  0  0
    4.5354   -6.4265    0.0000 C   0  0  0  0  0  0  0  0  0  0  0  0
   -1.1804  -11.3765    0.0000 O   0  0  0  0  0  0  0  0  0  0  0  0
    0.2486  -10.5515    0.0000 C   0  0  0  0  0  0  0  0  0  0  0  0
    5.2454   -6.0218    0.0000 C   0  0  0  0  0  0  0  0  0  0  0  0
   -1.8948  -10.9640    0.0000 C   0  0  0  0  0  0  0  0  0  0  0  0
   -2.6093  -11.3765    0.0000 C   0  0  0  0  0  0  0  0  0  0  0  0
   -1.8948  -10.1390    0.0000 O   0  0  0  0  0  0  0  0  0  0  0  0
   -3.3238  -10.9640    0.0000 C   0  0  0  0  0  0  0  0  0  0  0  0
   -4.0383  -11.3765    0.0000 C   0  0  0  0  0  0  0  0  0  0  0  0
   -4.0640  -12.2162    0.0000 C   0  0  0  0  0  0  0  0  0  0  0  0
   -3.3238  -12.6140    0.0000 C   0  0  0  0  0  0  0  0  0  0  0  0
   -2.6093  -12.2015    0.0000 C   0  0  0  0  0  0  0  0  0  0  0  0
    3.8209  -10.9640    0.0000 C   0  0  0  0  0  0  0  0  0  0  0  0
    4.5354  -11.3765    0.0000 C   0  0  0  0  0  0  0  0  0  0  0  0
    3.8209  -10.1390    0.0000 O   0  0  0  0  0  0  0  0  0  0  0  0
    4.5354  -12.2015    0.0000 C   0  0  0  0  0  0  0  0  0  0  0  0
    5.2499  -12.6140    0.0000 C   0  0  0  0  0  0  0  0  0  0  0  0
    5.9900  -12.2163    0.0000 C   0  0  0  0  0  0  0  0  0  0  0  0
    5.9643  -11.3765    0.0000 C   0  0  0  0  0  0  0  0  0  0  0  0
    5.2499  -10.9640    0.0000 C   0  0  0  0  0  0  0  0  0  0  0  0
   -4.7784  -12.6287    0.0000 C   0  0  0  0  0  0  0  0  0  0  0  0
   -5.4929  -13.0412    0.0000 N   0  0  0  0  0  0  0  0  0  0  0  0
    6.7045  -12.6287    0.0000 C   0  0  0  0  0  0  0  0  0  0  0  0
    7.4190  -13.0412    0.0000 N   0  0  0  0  0  0  0  0  0  0  0  0
  2  1  1  0  0  0  0
  2  3  1  0  0  0  0
  4  3  1  0  0  0  0
  5  4  1  0  0  0  0
  5  6  1  0  0  0  0
  6  1  1  1  0  0  0
  6  7  1  0  0  0  0
  5  8  1  0  0  0  0
  2  9  1  1  0  0  0
  9 10  1  4  0  0  0
  9 11  1  0  0  0  0
  4 12  1  1  0  0  0
  7 13  2  0  0  0  0
  7 14  1  0  0  0  0
 14 15  4  0  0  0  0
 15 16  4  0  0  0  0
  8 15  1  0  0  0  0
  5 17  1  1  0  0  0
 16 18  4  0  0  0  0
 18 19  4  0  0  0  0
 19 20  4  0  0  0  0
 20 14  4  0  0  0  0
 20 21  2  0  0  0  0
 18 22  1  0  0  0  0
 22 23  4  0  0  0  0
 23 24  4  0  0  0  0
 24 25  4  0  0  0  0
 26 22  4  0  0  0  0
 10 27  1  0  0  0  0
  9 28  1  0  0  0  0
 25 29  4  0  0  0  0
 29 26  4  0  0  0  0
 27 30  1  0  0  0  0
 30 31  1  0  0  0  0
 30 32  2  0  0  0  0
 31 33  4  0  0  0  0
 33 34  4  0  0  0  0
 34 35  4  0  0  0  0
 35 36  4  0  0  0  0
 36 37  4  0  0  0  0
 37 31  4  0  0  0  0
 12 38  1  0  0  0  0
 38 39  1  0  0  0  0
 38 40  2  0  0  0  0
 39 41  4  0  0  0  0
 41 42  4  0  0  0  0
 42 43  4  0  0  0  0
 43 44  4  0  0  0  0
 44 45  4  0  0  0  0
 45 39  4  0  0  0  0
 35 46  1  0  0  0  0
 43 48  1  0  0  0  0
 48 49  3  0  0  0  0
 46 47  3  0  0  0  0
M  END
> <From>
www.bindingDB.org

> <BindingDB Reactant_set_id>
765829

> <Ligand InChI>
InChI=1S/C37H29N3O9/c1-36(45,20-46-33(42)23-9-5-21(17-38)6-10-23)26-14-27-32(41)31-29(16-28(47-35(31)44)25-4-3-13-40-19-25)49-37(27,2)30(15-26)48-34(43)24-11-7-22(18-39)8-12-24/h3-13,16,19,26-27,30,45H,14-15,20H2,1-2H3/t26-,27-,30-,36?,37-/m0/s1

> <Ligand InChI Key>
WEOCJMZXRUXKAV-NSZDKMDOSA-N

> <BindingDB MonomerID>
383178

> <BindingDB Ligand Name>
US10278962, Compound 13

> <Target Name>
Sterol O-acyltransferase 2

> <Target Source Organism According to Curator or DataSource>


> <Ki (nM)>


> <IC50 (nM)>
 23.0

> <Kd (nM)>


> <EC50 (nM)>


> <kon (M-1-s-1)>


> <koff (s-1)>


> <pH>


> <Temp (C)>


> <Curation/DataSource>
US Patent

> <Article DOI>


> <BindingDB Entry DOI>
10.7270/Q2CF9SF8

> <PMID>


> <PubChem AID>
aid1798542

> <Patent Number>
US10278962

> <Authors>
Nan, F; Li, B; Zhan, Y; Zhang, X; Xiong, Y; Hu, X; Zhang, Y

> <Institution>
Shanghai Institute of Materia Medica, Chinese Academy of Sciences

> <Link to Ligand in BindingDB>
http://www.bindingdb.org/bind/chemsearch/marvin/MolStructure.jsp?monomerid=383178

> <Link to Target in BindingDB>
http://www.bindingdb.org/jsp/dbsearch/PrimarySearch_ki.jsp?energyterm=kJ/mole&tag=pol&polymerid=7773&target=Sterol+O-acyltransferase+2&column=ki&startPg=0&Increment=50&submit=Search

> <Link to Ligand-Target Pair in BindingDB>
http://www.bindingdb.org/jsp/dbsearch/PrimarySearch_ki.jsp?energyterm=kJ/mole&tag=r21&monomerid=383178&enzyme=Sterol+O-acyltransferase+2&column=ki&startPg=0&Increment=50&submit=Search

> <Ligand HET ID in PDB>


> <PDB ID(s) for Ligand-Target Complex>


> <PubChem CID>
134188305

> <PubChem SID>
404852473

> <ChEBI ID of Ligand>


> <ChEMBL ID of Ligand>


> <DrugBank ID of Ligand>


> <IUPHAR_GRAC ID of Ligand>


> <KEGG ID of Ligand>


> <ZINC ID of Ligand>


> <Number of Protein Chains in Target (>1 implies a multichain complex)>
1

> <BindingDB Target Chain Sequence>
MEPGGARLRLQRTEGLGGERERQPCGDGNTETHRAPDLVQWTRHMEAVKAQLLEQAQGQLRELLDRAMREAIQSYPSQDKPLPPPPPGSLSRTQEPSLGKQKVFIIRKSLLDELMEVQHFRTIYHMFIAGLCVFIISTLAIDFIDEGRLLLEFDLLIFSFGQLPLALVTWVPMFLSTLLAPYQALRLWARGTWTQATGLGCALLAAHAVVLCALPVHVAVEHQLPPASRCVLVFEQVRFLMKSYSFLREAVPGTLRARRGEGIQAPSFSSYLYFLFCPTLIYRETYPRTPYVRWNYVAKNFAQALGCVLYACFILGRLCVPVFANMSREPFSTRALVLSILHATLPGIFMLLLIFFAFLHCWLNAFAEMLRFGDRMFYRDWWNSTSFSNYYRTWNVVVHDWLYSYVYQDGLRLLGARARGVAMLGVFLVSAVAHEYIFCFVLGFFYPVMLILFLVIGGMLNFMMHDQRTGPAWNVLMWTMLFLGQGIQVSLYCQEWYARRHCPLPQATFWGLVTPRSWSCHT

> <PDB ID(s) of Target Chain>


> <UniProt (SwissProt) Recommended Name of Target Chain>
Sterol O-acyltransferase 2

> <UniProt (SwissProt) Entry Name of Target Chain>
ACAT-2

> <UniProt (SwissProt) Primary ID of Target Chain>
O75908

> <UniProt (SwissProt) Secondary ID(s) of Target Chain>
F5H7W4 I6L9H9 Q4VB99 Q4VBA1 Q96TD4 Q9UNR2

> <UniProt (SwissProt) Alternative ID(s) of Target Chain>


> <UniProt (TrEMBL) Submitted Name of Target Chain>


> <UniProt (TrEMBL) Entry Name of Target Chain>


> <UniProt (TrEMBL) Primary ID of Target Chain>


> <UniProt (TrEMBL) Secondary ID(s) of Target Chain>


> <UniProt (TrEMBL) Alternative ID(s) of Target Chain>


$$$$

  Mrv0541 11241418062D          

 54 62  0  0  0  0            999 V2000
   16.2014  -12.1292    0.0000 C   0  0  0  0  0  0  0  0  0  0  0  0
   16.9145  -11.7119    0.0000 C   0  0  0  0  0  0  0  0  0  0  0  0
   17.6275  -12.1292    0.0000 C   0  0  1  0  0  0  0  0  0  0  0  0
   17.6285  -12.9553    0.0000 C   0  0  1  0  0  0  0  0  0  0  0  0
   18.3405  -13.3652    0.0000 C   0  0  0  0  0  0  0  0  0  0  0  0
   19.0561  -12.9534    0.0000 C   0  0  1  0  0  0  0  0  0  0  0  0
   18.3384  -11.7129    0.0000 C   0  0  2  0  0  0  0  0  0  0  0  0
   19.0507  -12.1297    0.0000 C   0  0  2  0  0  0  0  0  0  0  0  0
   19.7638  -11.7234    0.0000 O   0  0  0  0  0  0  0  0  0  0  0  0
   18.3393  -10.8900    0.0000 C   0  0  2  0  0  0  0  0  0  0  0  0
   16.9145  -13.3642    0.0000 C   0  0  1  0  0  0  0  0  0  0  0  0
   16.2014  -12.9553    0.0000 C   0  0  1  0  0  0  0  0  0  0  0  0
   15.4948  -13.3660    0.0000 O   0  0  0  0  0  0  0  0  0  0  0  0
   15.4949  -14.1875    0.0000 C   0  0  1  0  0  0  0  0  0  0  0  0
   16.2079  -14.5962    0.0000 O   0  0  0  0  0  0  0  0  0  0  0  0
   16.9209  -14.1840    0.0000 C   0  0  0  0  0  0  0  0  0  0  0  0
   19.0586  -10.4821    0.0000 C   0  0  0  0  0  0  0  0  0  0  0  0
   19.7693  -10.9005    0.0000 C   0  0  0  0  0  0  0  0  0  0  0  0
   20.4829  -10.4963    0.0000 C   0  0  0  0  0  0  0  0  0  0  0  0
   20.4921   -9.6724    0.0000 C   0  0  0  0  0  0  0  0  0  0  0  0
   19.7814   -9.2540    0.0000 O   0  0  0  0  0  0  0  0  0  0  0  0
   19.0615   -9.6597    0.0000 C   0  0  0  0  0  0  0  0  0  0  0  0
   18.3489   -9.2417    0.0000 O   0  0  0  0  0  0  0  0  0  0  0  0
   17.6256  -10.4738    0.0000 O   0  0  0  0  0  0  0  0  0  0  0  0
   19.0429  -11.3031    0.0000 C   0  0  0  0  0  0  0  0  0  0  0  0
   19.7726  -13.3648    0.0000 O   0  0  0  0  0  0  0  0  0  0  0  0
   17.6201  -11.3031    0.0000 C   0  0  0  0  0  0  0  0  0  0  0  0
   16.9066  -12.5381    0.0000 C   0  0  0  0  0  0  0  0  0  0  0  0
   20.4871  -12.9499    0.0000 C   0  0  0  0  0  0  0  0  0  0  0  0
   21.2035  -13.3612    0.0000 C   0  0  0  0  0  0  0  0  0  0  0  0
   20.4850  -12.1238    0.0000 O   0  0  0  0  0  0  0  0  0  0  0  0
   21.2035  -14.1873    0.0000 C   0  0  0  0  0  0  0  0  0  0  0  0
   21.9192  -14.5985    0.0000 C   0  0  0  0  0  0  0  0  0  0  0  0
   22.6345  -14.1836    0.0000 C   0  0  0  0  0  0  0  0  0  0  0  0
   22.6297  -13.3531    0.0000 C   0  0  0  0  0  0  0  0  0  0  0  0
   21.9136  -12.9457    0.0000 C   0  0  0  0  0  0  0  0  0  0  0  0
   21.2119   -9.2669    0.0000 C   0  0  0  0  0  0  0  0  0  0  0  0
   21.9235   -9.6887    0.0000 C   0  0  0  0  0  0  0  0  0  0  0  0
   22.6425   -9.2833    0.0000 N   0  0  0  0  0  0  0  0  0  0  0  0
   22.6510   -8.4563    0.0000 C   0  0  0  0  0  0  0  0  0  0  0  0
   21.9346   -8.0364    0.0000 C   0  0  0  0  0  0  0  0  0  0  0  0
   21.2186   -8.4443    0.0000 C   0  0  0  0  0  0  0  0  0  0  0  0
   14.7801  -14.6015    0.0000 C   0  0  0  0  0  0  0  0  0  0  0  0
   14.0672  -14.1866    0.0000 C   0  0  0  0  0  0  0  0  0  0  0  0
   13.3528  -14.6000    0.0000 C   0  0  0  0  0  0  0  0  0  0  0  0
   13.3536  -15.4271    0.0000 C   0  0  0  0  0  0  0  0  0  0  0  0
   23.3506  -14.5896    0.0000 C   0  0  0  0  0  0  0  0  0  0  0  0
   24.0676  -14.9998    0.0000 N   0  0  0  0  0  0  0  0  0  0  0  0
   14.7861  -15.4231    0.0000 C   0  0  0  0  0  0  0  0  0  0  0  0
   14.0748  -15.8345    0.0000 C   0  0  0  0  0  0  0  0  0  0  0  0
   14.0765  -16.6545    0.0000 C   0  0  0  0  0  0  0  0  0  0  0  0
   14.7887  -17.0639    0.0000 C   0  0  0  0  0  0  0  0  0  0  0  0
   15.5008  -16.6473    0.0000 C   0  0  0  0  0  0  0  0  0  0  0  0
   15.4957  -15.8288    0.0000 C   0  0  0  0  0  0  0  0  0  0  0  0
 12  1  1  0  0  0  0
  1  2  1  0  0  0  0
  4 11  1  0  0  0  0
  3  2  1  0  0  0  0
  3  4  1  0  0  0  0
  7  3  1  1  0  0  0
  4  5  1  1  0  0  0
  6  5  1  0  0  0  0
  8  6  1  0  0  0  0
  7  8  1  0  0  0  0
  7 10  1  0  0  0  0
  8  9  1  0  0  0  0
  9 18  1  0  0  0  0
 10 17  1  0  0  0  0
 11 12  1  0  0  0  0
 11 16  1  0  0  0  0
 12 13  1  1  0  0  0
 14 13  1  0  0  0  0
 14 15  1  0  0  0  0
 15 16  1  0  0  0  0
 17 18  2  0  0  0  0
 17 22  1  0  0  0  0
 18 19  1  0  0  0  0
 19 20  2  0  0  0  0
 20 21  1  0  0  0  0
 21 22  1  0  0  0  0
 22 23  2  0  0  0  0
 10 24  1  1  0  0  0
  8 25  1  1  0  0  0
  6 26  1  1  0  0  0
  3 27  1  1  0  0  0
 11 28  1  1  0  0  0
 26 29  1  0  0  0  0
 29 30  1  0  0  0  0
 29 31  2  0  0  0  0
 30 32  2  0  0  0  0
 32 33  1  0  0  0  0
 33 34  2  0  0  0  0
 34 35  1  0  0  0  0
 35 36  2  0  0  0  0
 36 30  1  0  0  0  0
 37 38  2  0  0  0  0
 38 39  1  0  0  0  0
 39 40  2  0  0  0  0
 40 41  1  0  0  0  0
 41 42  2  0  0  0  0
 42 37  1  0  0  0  0
 20 37  1  0  0  0  0
 14 43  1  1  0  0  0
 43 44  1  0  0  0  0
 44 45  2  0  0  0  0
 45 46  1  0  0  0  0
 46 50  2  0  0  0  0
 49 43  2  0  0  0  0
 47 48  3  0  0  0  0
 34 47  1  0  0  0  0
 49 50  1  0  0  0  0
 50 51  1  0  0  0  0
 51 52  2  0  0  0  0
 52 53  1  0  0  0  0
 53 54  2  0  0  0  0
 54 49  1  0  0  0  0
M  END
> <From>
www.bindingDB.org

> <BindingDB Reactant_set_id>
51068460

> <Ligand InChI>
InChI=1S/C44H40N2O8/c1-42-18-17-34-43(2,24-50-41(53-34)30-12-6-9-26-8-4-5-11-29(26)30)33(42)21-35(52-39(48)27-15-13-25(22-45)14-16-27)44(3)38(42)37(47)36-32(54-44)20-31(51-40(36)49)28-10-7-19-46-23-28/h4-16,19-20,23,33-35,37-38,41,47H,17-18,21,24H2,1-3H3/t33-,34+,35+,37+,38-,41-,42+,43+,44-/m1/s1

> <Ligand InChI Key>
ABAFUEDZNZDZEN-RMUOXLJFSA-N

> <BindingDB MonomerID>
50436345

> <BindingDB Ligand Name>
CHEMBL2398814

> <Target Name>
Sterol O-acyltransferase 2

> <Target Source Organism According to Curator or DataSource>


> <Ki (nM)>


> <IC50 (nM)>
 23

> <Kd (nM)>


> <EC50 (nM)>


> <kon (M-1-s-1)>


> <koff (s-1)>


> <pH>


> <Temp (C)>


> <Curation/DataSource>
ChEMBL

> <Article DOI>
10.1016/j.bmcl.2013.04.075

> <BindingDB Entry DOI>
10.7270/Q2WD41Z9

> <PMID>
23711919

> <PubChem AID>


> <Patent Number>


> <Authors>
Ohtawa, M; Yamazaki, H; Ohte, S; Matsuda, D; Ohshiro, T; Rudel, LL; Omura, S; Tomoda, H; Nagamitsu, T

> <Institution>
Kitasato University

> <Link to Ligand in BindingDB>
http://www.bindingdb.org/bind/chemsearch/marvin/MolStructure.jsp?monomerid=50436345

> <Link to Target in BindingDB>
http://www.bindingdb.org/jsp/dbsearch/PrimarySearch_ki.jsp?energyterm=kJ/mole&tag=pol&polymerid=7773&target=Sterol+O-acyltransferase+2&column=ki&startPg=0&Increment=50&submit=Search

> <Link to Ligand-Target Pair in BindingDB>
http://www.bindingdb.org/jsp/dbsearch/PrimarySearch_ki.jsp?energyterm=kJ/mole&tag=r21&monomerid=50436345&enzyme=Sterol+O-acyltransferase+2&column=ki&startPg=0&Increment=50&submit=Search

> <Ligand HET ID in PDB>


> <PDB ID(s) for Ligand-Target Complex>


> <PubChem CID>
71680768

> <PubChem SID>
175448662

> <ChEBI ID of Ligand>


> <ChEMBL ID of Ligand>
CHEMBL2398814

> <DrugBank ID of Ligand>


> <IUPHAR_GRAC ID of Ligand>


> <KEGG ID of Ligand>


> <ZINC ID of Ligand>
ZINC96272257

> <Number of Protein Chains in Target (>1 implies a multichain complex)>
1

> <BindingDB Target Chain Sequence>
MEPGGARLRLQRTEGLGGERERQPCGDGNTETHRAPDLVQWTRHMEAVKAQLLEQAQGQLRELLDRAMREAIQSYPSQDKPLPPPPPGSLSRTQEPSLGKQKVFIIRKSLLDELMEVQHFRTIYHMFIAGLCVFIISTLAIDFIDEGRLLLEFDLLIFSFGQLPLALVTWVPMFLSTLLAPYQALRLWARGTWTQATGLGCALLAAHAVVLCALPVHVAVEHQLPPASRCVLVFEQVRFLMKSYSFLREAVPGTLRARRGEGIQAPSFSSYLYFLFCPTLIYRETYPRTPYVRWNYVAKNFAQALGCVLYACFILGRLCVPVFANMSREPFSTRALVLSILHATLPGIFMLLLIFFAFLHCWLNAFAEMLRFGDRMFYRDWWNSTSFSNYYRTWNVVVHDWLYSYVYQDGLRLLGARARGVAMLGVFLVSAVAHEYIFCFVLGFFYPVMLILFLVIGGMLNFMMHDQRTGPAWNVLMWTMLFLGQGIQVSLYCQEWYARRHCPLPQATFWGLVTPRSWSCHT

> <PDB ID(s) of Target Chain>


> <UniProt (SwissProt) Recommended Name of Target Chain>
Sterol O-acyltransferase 2

> <UniProt (SwissProt) Entry Name of Target Chain>
ACAT-2

> <UniProt (SwissProt) Primary ID of Target Chain>
O75908

> <UniProt (SwissProt) Secondary ID(s) of Target Chain>
F5H7W4 I6L9H9 Q4VB99 Q4VBA1 Q96TD4 Q9UNR2

> <UniProt (SwissProt) Alternative ID(s) of Target Chain>


> <UniProt (TrEMBL) Submitted Name of Target Chain>


> <UniProt (TrEMBL) Entry Name of Target Chain>


> <UniProt (TrEMBL) Primary ID of Target Chain>


> <UniProt (TrEMBL) Secondary ID(s) of Target Chain>


> <UniProt (TrEMBL) Alternative ID(s) of Target Chain>


$$$$

  Mrv0541 11241418062D          

 50 57  0  0  0  0            999 V2000
    0.4713  -19.7397    0.0000 C   0  0  0  0  0  0  0  0  0  0  0  0
    1.1840  -19.3227    0.0000 C   0  0  0  0  0  0  0  0  0  0  0  0
    1.8966  -19.7397    0.0000 C   0  0  1  0  0  0  0  0  0  0  0  0
    1.8978  -20.5655    0.0000 C   0  0  1  0  0  0  0  0  0  0  0  0
    2.6095  -20.9752    0.0000 C   0  0  0  0  0  0  0  0  0  0  0  0
    3.3247  -20.5637    0.0000 C   0  0  1  0  0  0  0  0  0  0  0  0
    2.6073  -19.3236    0.0000 C   0  0  2  0  0  0  0  0  0  0  0  0
    3.3194  -19.7401    0.0000 C   0  0  2  0  0  0  0  0  0  0  0  0
    4.0321  -19.3341    0.0000 O   0  0  0  0  0  0  0  0  0  0  0  0
    2.6082  -18.5010    0.0000 C   0  0  2  0  0  0  0  0  0  0  0  0
    1.1840  -20.9742    0.0000 C   0  0  1  0  0  0  0  0  0  0  0  0
    0.4713  -20.5655    0.0000 C   0  0  1  0  0  0  0  0  0  0  0  0
   -0.2403  -20.9761    0.0000 O   0  0  0  0  0  0  0  0  0  0  0  0
   -0.2405  -21.7970    0.0000 C   0  0  1  0  0  0  0  0  0  0  0  0
    0.4777  -22.2058    0.0000 O   0  0  0  0  0  0  0  0  0  0  0  0
    1.1903  -21.7935    0.0000 C   0  0  0  0  0  0  0  0  0  0  0  0
    3.3271  -18.0933    0.0000 C   0  0  0  0  0  0  0  0  0  0  0  0
    4.0375  -18.5114    0.0000 C   0  0  0  0  0  0  0  0  0  0  0  0
    4.7509  -18.1075    0.0000 C   0  0  0  0  0  0  0  0  0  0  0  0
    4.7601  -17.2838    0.0000 C   0  0  0  0  0  0  0  0  0  0  0  0
    4.0497  -16.8657    0.0000 O   0  0  0  0  0  0  0  0  0  0  0  0
    3.3301  -17.2713    0.0000 C   0  0  0  0  0  0  0  0  0  0  0  0
    2.6179  -16.8534    0.0000 O   0  0  0  0  0  0  0  0  0  0  0  0
    1.8948  -18.0850    0.0000 O   0  0  0  0  0  0  0  0  0  0  0  0
    3.3115  -18.9139    0.0000 C   0  0  0  0  0  0  0  0  0  0  0  0
    4.0409  -20.9748    0.0000 O   0  0  0  0  0  0  0  0  0  0  0  0
    1.8893  -18.9139    0.0000 C   0  0  0  0  0  0  0  0  0  0  0  0
    1.1761  -20.1484    0.0000 C   0  0  0  0  0  0  0  0  0  0  0  0
    4.7550  -20.5600    0.0000 C   0  0  0  0  0  0  0  0  0  0  0  0
    5.4712  -20.9711    0.0000 C   0  0  0  0  0  0  0  0  0  0  0  0
    4.7529  -19.7342    0.0000 O   0  0  0  0  0  0  0  0  0  0  0  0
    5.4712  -21.7969    0.0000 C   0  0  0  0  0  0  0  0  0  0  0  0
    6.1865  -22.2079    0.0000 C   0  0  0  0  0  0  0  0  0  0  0  0
    6.9017  -21.7932    0.0000 C   0  0  0  0  0  0  0  0  0  0  0  0
    6.8969  -20.9631    0.0000 C   0  0  0  0  0  0  0  0  0  0  0  0
    6.1809  -20.5558    0.0000 C   0  0  0  0  0  0  0  0  0  0  0  0
    5.4795  -16.8786    0.0000 C   0  0  0  0  0  0  0  0  0  0  0  0
    6.1910  -17.3002    0.0000 C   0  0  0  0  0  0  0  0  0  0  0  0
    6.9095  -16.8950    0.0000 N   0  0  0  0  0  0  0  0  0  0  0  0
    6.9181  -16.0684    0.0000 C   0  0  0  0  0  0  0  0  0  0  0  0
    6.2020  -15.6486    0.0000 C   0  0  0  0  0  0  0  0  0  0  0  0
    5.4862  -16.0563    0.0000 C   0  0  0  0  0  0  0  0  0  0  0  0
   -0.9523  -22.2110    0.0000 C   0  0  0  0  0  0  0  0  0  0  0  0
   -1.6660  -21.7962    0.0000 C   0  0  0  0  0  0  0  0  0  0  0  0
   -2.3784  -22.2095    0.0000 C   0  0  0  0  0  0  0  0  0  0  0  0
   -2.3792  -23.0361    0.0000 C   0  0  0  0  0  0  0  0  0  0  0  0
   -1.6569  -23.4478    0.0000 C   0  0  0  0  0  0  0  0  0  0  0  0
   -0.9500  -23.0321    0.0000 C   0  0  0  0  0  0  0  0  0  0  0  0
    7.6184  -22.2032    0.0000 F   0  0  0  0  0  0  0  0  0  0  0  0
   -1.6657  -20.9712    0.0000 C   0  0  0  0  0  0  0  0  0  0  0  0
 12  1  1  0  0  0  0
  1  2  1  0  0  0  0
  4 11  1  0  0  0  0
  3  2  1  0  0  0  0
  3  4  1  0  0  0  0
  7  3  1  1  0  0  0
  4  5  1  1  0  0  0
  6  5  1  0  0  0  0
  8  6  1  0  0  0  0
  7  8  1  0  0  0  0
  7 10  1  0  0  0  0
  8  9  1  0  0  0  0
  9 18  1  0  0  0  0
 10 17  1  0  0  0  0
 11 12  1  0  0  0  0
 11 16  1  0  0  0  0
 12 13  1  1  0  0  0
 14 13  1  0  0  0  0
 14 15  1  0  0  0  0
 15 16  1  0  0  0  0
 17 18  2  0  0  0  0
 17 22  1  0  0  0  0
 18 19  1  0  0  0  0
 19 20  2  0  0  0  0
 20 21  1  0  0  0  0
 21 22  1  0  0  0  0
 22 23  2  0  0  0  0
 10 24  1  1  0  0  0
  8 25  1  1  0  0  0
  6 26  1  1  0  0  0
  3 27  1  1  0  0  0
 11 28  1  1  0  0  0
 26 29  1  0  0  0  0
 29 30  1  0  0  0  0
 29 31  2  0  0  0  0
 30 32  2  0  0  0  0
 32 33  1  0  0  0  0
 33 34  2  0  0  0  0
 34 35  1  0  0  0  0
 35 36  2  0  0  0  0
 36 30  1  0  0  0  0
 37 38  2  0  0  0  0
 38 39  1  0  0  0  0
 39 40  2  0  0  0  0
 40 41  1  0  0  0  0
 41 42  2  0  0  0  0
 42 37  1  0  0  0  0
 20 37  1  0  0  0  0
 14 43  1  1  0  0  0
 43 44  2  0  0  0  0
 44 45  1  0  0  0  0
 45 46  2  0  0  0  0
 46 47  1  0  0  0  0
 47 48  2  0  0  0  0
 48 43  1  0  0  0  0
 34 49  1  0  0  0  0
 44 50  1  0  0  0  0
M  END
> <From>
www.bindingDB.org

> <BindingDB Reactant_set_id>
51068413

> <Ligand InChI>
InChI=1S/C40H40FNO8/c1-22-8-5-6-10-26(22)37-46-21-39(3)29-19-31(48-35(44)23-11-13-25(41)14-12-23)40(4)34(38(29,2)16-15-30(39)49-37)33(43)32-28(50-40)18-27(47-36(32)45)24-9-7-17-42-20-24/h5-14,17-18,20,29-31,33-34,37,43H,15-16,19,21H2,1-4H3/t29-,30+,31+,33+,34-,37-,38+,39+,40-/m1/s1

> <Ligand InChI Key>
HUEQAFBTLSJEBL-WVGFPPCDSA-N

> <BindingDB MonomerID>
50436327

> <BindingDB Ligand Name>
CHEMBL2398805

> <Target Name>
Sterol O-acyltransferase 2

> <Target Source Organism According to Curator or DataSource>


> <Ki (nM)>


> <IC50 (nM)>
 23

> <Kd (nM)>


> <EC50 (nM)>


> <kon (M-1-s-1)>


> <koff (s-1)>


> <pH>


> <Temp (C)>


> <Curation/DataSource>
ChEMBL

> <Article DOI>
10.1016/j.bmcl.2013.04.075

> <BindingDB Entry DOI>
10.7270/Q2WD41Z9

> <PMID>
23711919

> <PubChem AID>


> <Patent Number>


> <Authors>
Ohtawa, M; Yamazaki, H; Ohte, S; Matsuda, D; Ohshiro, T; Rudel, LL; Omura, S; Tomoda, H; Nagamitsu, T

> <Institution>
Kitasato University

> <Link to Ligand in BindingDB>
http://www.bindingdb.org/bind/chemsearch/marvin/MolStructure.jsp?monomerid=50436327

> <Link to Target in BindingDB>
http://www.bindingdb.org/jsp/dbsearch/PrimarySearch_ki.jsp?energyterm=kJ/mole&tag=pol&polymerid=7773&target=Sterol+O-acyltransferase+2&column=ki&startPg=0&Increment=50&submit=Search

> <Link to Ligand-Target Pair in BindingDB>
http://www.bindingdb.org/jsp/dbsearch/PrimarySearch_ki.jsp?energyterm=kJ/mole&tag=r21&monomerid=50436327&enzyme=Sterol+O-acyltransferase+2&column=ki&startPg=0&Increment=50&submit=Search

> <Ligand HET ID in PDB>


> <PDB ID(s) for Ligand-Target Complex>


> <PubChem CID>
71682812

> <PubChem SID>
175448644

> <ChEBI ID of Ligand>


> <ChEMBL ID of Ligand>
CHEMBL2398805

> <DrugBank ID of Ligand>


> <IUPHAR_GRAC ID of Ligand>


> <KEGG ID of Ligand>


> <ZINC ID of Ligand>
ZINC96272240

> <Number of Protein Chains in Target (>1 implies a multichain complex)>
1

> <BindingDB Target Chain Sequence>
MEPGGARLRLQRTEGLGGERERQPCGDGNTETHRAPDLVQWTRHMEAVKAQLLEQAQGQLRELLDRAMREAIQSYPSQDKPLPPPPPGSLSRTQEPSLGKQKVFIIRKSLLDELMEVQHFRTIYHMFIAGLCVFIISTLAIDFIDEGRLLLEFDLLIFSFGQLPLALVTWVPMFLSTLLAPYQALRLWARGTWTQATGLGCALLAAHAVVLCALPVHVAVEHQLPPASRCVLVFEQVRFLMKSYSFLREAVPGTLRARRGEGIQAPSFSSYLYFLFCPTLIYRETYPRTPYVRWNYVAKNFAQALGCVLYACFILGRLCVPVFANMSREPFSTRALVLSILHATLPGIFMLLLIFFAFLHCWLNAFAEMLRFGDRMFYRDWWNSTSFSNYYRTWNVVVHDWLYSYVYQDGLRLLGARARGVAMLGVFLVSAVAHEYIFCFVLGFFYPVMLILFLVIGGMLNFMMHDQRTGPAWNVLMWTMLFLGQGIQVSLYCQEWYARRHCPLPQATFWGLVTPRSWSCHT

> <PDB ID(s) of Target Chain>


> <UniProt (SwissProt) Recommended Name of Target Chain>
Sterol O-acyltransferase 2

> <UniProt (SwissProt) Entry Name of Target Chain>
ACAT-2

> <UniProt (SwissProt) Primary ID of Target Chain>
O75908

> <UniProt (SwissProt) Secondary ID(s) of Target Chain>
F5H7W4 I6L9H9 Q4VB99 Q4VBA1 Q96TD4 Q9UNR2

> <UniProt (SwissProt) Alternative ID(s) of Target Chain>


> <UniProt (TrEMBL) Submitted Name of Target Chain>


> <UniProt (TrEMBL) Entry Name of Target Chain>


> <UniProt (TrEMBL) Primary ID of Target Chain>


> <UniProt (TrEMBL) Secondary ID(s) of Target Chain>


> <UniProt (TrEMBL) Alternative ID(s) of Target Chain>


$$$$

  Mrv0541 11241418062D          

 50 57  0  0  0  0            999 V2000
    1.9184  -19.6801    0.0000 C   0  0  0  0  0  0  0  0  0  0  0  0
    2.6310  -19.2631    0.0000 C   0  0  0  0  0  0  0  0  0  0  0  0
    3.3437  -19.6801    0.0000 C   0  0  1  0  0  0  0  0  0  0  0  0
    3.3447  -20.5059    0.0000 C   0  0  1  0  0  0  0  0  0  0  0  0
    4.0564  -20.9155    0.0000 C   0  0  0  0  0  0  0  0  0  0  0  0
    4.7716  -20.5041    0.0000 C   0  0  1  0  0  0  0  0  0  0  0  0
    4.0544  -19.2640    0.0000 C   0  0  2  0  0  0  0  0  0  0  0  0
    4.7662  -19.6806    0.0000 C   0  0  2  0  0  0  0  0  0  0  0  0
    5.4790  -19.2745    0.0000 O   0  0  0  0  0  0  0  0  0  0  0  0
    4.0552  -18.4415    0.0000 C   0  0  2  0  0  0  0  0  0  0  0  0
    2.6310  -20.9146    0.0000 C   0  0  1  0  0  0  0  0  0  0  0  0
    1.9184  -20.5059    0.0000 C   0  0  1  0  0  0  0  0  0  0  0  0
    1.2120  -20.9164    0.0000 O   0  0  0  0  0  0  0  0  0  0  0  0
    1.2121  -21.7373    0.0000 C   0  0  1  0  0  0  0  0  0  0  0  0
    1.9248  -22.1461    0.0000 O   0  0  0  0  0  0  0  0  0  0  0  0
    2.6373  -21.7338    0.0000 C   0  0  0  0  0  0  0  0  0  0  0  0
    4.7741  -18.0339    0.0000 C   0  0  0  0  0  0  0  0  0  0  0  0
    5.4845  -18.4519    0.0000 C   0  0  0  0  0  0  0  0  0  0  0  0
    6.1978  -18.0480    0.0000 C   0  0  0  0  0  0  0  0  0  0  0  0
    6.2070  -17.2244    0.0000 C   0  0  0  0  0  0  0  0  0  0  0  0
    5.4966  -16.8064    0.0000 O   0  0  0  0  0  0  0  0  0  0  0  0
    4.7771  -17.2119    0.0000 C   0  0  0  0  0  0  0  0  0  0  0  0
    4.0648  -16.7940    0.0000 O   0  0  0  0  0  0  0  0  0  0  0  0
    3.3418  -18.0255    0.0000 O   0  0  0  0  0  0  0  0  0  0  0  0
    4.7585  -18.8544    0.0000 C   0  0  0  0  0  0  0  0  0  0  0  0
    5.4878  -20.9151    0.0000 O   0  0  0  0  0  0  0  0  0  0  0  0
    3.3363  -18.8544    0.0000 C   0  0  0  0  0  0  0  0  0  0  0  0
    2.6232  -20.0889    0.0000 C   0  0  0  0  0  0  0  0  0  0  0  0
    6.2018  -20.5004    0.0000 C   0  0  0  0  0  0  0  0  0  0  0  0
    6.9180  -20.9115    0.0000 C   0  0  0  0  0  0  0  0  0  0  0  0
    6.1998  -19.6747    0.0000 O   0  0  0  0  0  0  0  0  0  0  0  0
    6.9180  -21.7372    0.0000 C   0  0  0  0  0  0  0  0  0  0  0  0
    7.6333  -22.1482    0.0000 C   0  0  0  0  0  0  0  0  0  0  0  0
    8.3483  -21.7335    0.0000 C   0  0  0  0  0  0  0  0  0  0  0  0
    8.3436  -20.9035    0.0000 C   0  0  0  0  0  0  0  0  0  0  0  0
    7.6278  -20.4962    0.0000 C   0  0  0  0  0  0  0  0  0  0  0  0
    6.9264  -16.8192    0.0000 C   0  0  0  0  0  0  0  0  0  0  0  0
    7.6377  -17.2408    0.0000 C   0  0  0  0  0  0  0  0  0  0  0  0
    8.3563  -16.8356    0.0000 N   0  0  0  0  0  0  0  0  0  0  0  0
    8.3648  -16.0090    0.0000 C   0  0  0  0  0  0  0  0  0  0  0  0
    7.6487  -15.5893    0.0000 C   0  0  0  0  0  0  0  0  0  0  0  0
    6.9331  -15.9969    0.0000 C   0  0  0  0  0  0  0  0  0  0  0  0
    9.0650  -22.1436    0.0000 C   0  0  0  0  0  0  0  0  0  0  0  0
    9.0683  -22.9693    0.0000 O   0  0  0  0  0  0  0  0  0  0  0  0
    0.4982  -22.1509    0.0000 C   0  0  0  0  0  0  0  0  0  0  0  0
   -0.2162  -21.7383    0.0000 C   0  0  0  0  0  0  0  0  0  0  0  0
   -0.9307  -22.1509    0.0000 C   0  0  0  0  0  0  0  0  0  0  0  0
   -0.9307  -22.9759    0.0000 C   0  0  0  0  0  0  0  0  0  0  0  0
   -0.2162  -23.3884    0.0000 C   0  0  0  0  0  0  0  0  0  0  0  0
    0.4982  -22.9759    0.0000 C   0  0  0  0  0  0  0  0  0  0  0  0
 12  1  1  0  0  0  0
  1  2  1  0  0  0  0
  4 11  1  0  0  0  0
  3  2  1  0  0  0  0
  3  4  1  0  0  0  0
  7  3  1  1  0  0  0
  4  5  1  1  0  0  0
  6  5  1  0  0  0  0
  8  6  1  0  0  0  0
  7  8  1  0  0  0  0
  7 10  1  0  0  0  0
  8  9  1  0  0  0  0
  9 18  1  0  0  0  0
 10 17  1  0  0  0  0
 11 12  1  0  0  0  0
 11 16  1  0  0  0  0
 12 13  1  1  0  0  0
 14 13  1  0  0  0  0
 14 15  1  0  0  0  0
 15 16  1  0  0  0  0
 17 18  2  0  0  0  0
 17 22  1  0  0  0  0
 18 19  1  0  0  0  0
 19 20  2  0  0  0  0
 20 21  1  0  0  0  0
 21 22  1  0  0  0  0
 22 23  2  0  0  0  0
 10 24  1  1  0  0  0
  8 25  1  1  0  0  0
  6 26  1  1  0  0  0
  3 27  1  1  0  0  0
 11 28  1  1  0  0  0
 26 29  1  0  0  0  0
 29 30  1  0  0  0  0
 29 31  2  0  0  0  0
 30 32  2  0  0  0  0
 32 33  1  0  0  0  0
 33 34  2  0  0  0  0
 34 35  1  0  0  0  0
 35 36  2  0  0  0  0
 36 30  1  0  0  0  0
 37 38  2  0  0  0  0
 38 39  1  0  0  0  0
 39 40  2  0  0  0  0
 40 41  1  0  0  0  0
 41 42  2  0  0  0  0
 42 37  1  0  0  0  0
 20 37  1  0  0  0  0
 34 43  1  0  0  0  0
 43 44  2  0  0  0  0
 14 45  1  1  0  0  0
 50 45  2  0  0  0  0
 46 45  1  0  0  0  0
 46 47  2  0  0  0  0
 47 48  1  0  0  0  0
 48 49  2  0  0  0  0
 49 50  1  0  0  0  0
M  END
> <From>
www.bindingDB.org

> <BindingDB Reactant_set_id>
51068422

> <Ligand InChI>
InChI=1S/C40H39NO9/c1-38-16-15-30-39(2,22-46-37(49-30)25-8-5-4-6-9-25)29(38)19-31(48-35(44)24-13-11-23(21-42)12-14-24)40(3)34(38)33(43)32-28(50-40)18-27(47-36(32)45)26-10-7-17-41-20-26/h4-14,17-18,20-21,29-31,33-34,37,43H,15-16,19,22H2,1-3H3/t29-,30+,31+,33+,34-,37-,38+,39+,40-/m1/s1

> <Ligand InChI Key>
UHTMDUPQTKHTBJ-WVGFPPCDSA-N

> <BindingDB MonomerID>
50436335

> <BindingDB Ligand Name>
CHEMBL2396682

> <Target Name>
Sterol O-acyltransferase 2

> <Target Source Organism According to Curator or DataSource>


> <Ki (nM)>


> <IC50 (nM)>
 30

> <Kd (nM)>


> <EC50 (nM)>


> <kon (M-1-s-1)>


> <koff (s-1)>


> <pH>


> <Temp (C)>


> <Curation/DataSource>
ChEMBL

> <Article DOI>
10.1016/j.bmcl.2013.04.075

> <BindingDB Entry DOI>
10.7270/Q2WD41Z9

> <PMID>
23711919

> <PubChem AID>


> <Patent Number>


> <Authors>
Ohtawa, M; Yamazaki, H; Ohte, S; Matsuda, D; Ohshiro, T; Rudel, LL; Omura, S; Tomoda, H; Nagamitsu, T

> <Institution>
Kitasato University

> <Link to Ligand in BindingDB>
http://www.bindingdb.org/bind/chemsearch/marvin/MolStructure.jsp?monomerid=50436335

> <Link to Target in BindingDB>
http://www.bindingdb.org/jsp/dbsearch/PrimarySearch_ki.jsp?energyterm=kJ/mole&tag=pol&polymerid=7773&target=Sterol+O-acyltransferase+2&column=ki&startPg=0&Increment=50&submit=Search

> <Link to Ligand-Target Pair in BindingDB>
http://www.bindingdb.org/jsp/dbsearch/PrimarySearch_ki.jsp?energyterm=kJ/mole&tag=r21&monomerid=50436335&enzyme=Sterol+O-acyltransferase+2&column=ki&startPg=0&Increment=50&submit=Search

> <Ligand HET ID in PDB>


> <PDB ID(s) for Ligand-Target Complex>


> <PubChem CID>
71682501

> <PubChem SID>
175448652

> <ChEBI ID of Ligand>


> <ChEMBL ID of Ligand>
CHEMBL2396682

> <DrugBank ID of Ligand>


> <IUPHAR_GRAC ID of Ligand>


> <KEGG ID of Ligand>


> <ZINC ID of Ligand>
ZINC96272248

> <Number of Protein Chains in Target (>1 implies a multichain complex)>
1

> <BindingDB Target Chain Sequence>
MEPGGARLRLQRTEGLGGERERQPCGDGNTETHRAPDLVQWTRHMEAVKAQLLEQAQGQLRELLDRAMREAIQSYPSQDKPLPPPPPGSLSRTQEPSLGKQKVFIIRKSLLDELMEVQHFRTIYHMFIAGLCVFIISTLAIDFIDEGRLLLEFDLLIFSFGQLPLALVTWVPMFLSTLLAPYQALRLWARGTWTQATGLGCALLAAHAVVLCALPVHVAVEHQLPPASRCVLVFEQVRFLMKSYSFLREAVPGTLRARRGEGIQAPSFSSYLYFLFCPTLIYRETYPRTPYVRWNYVAKNFAQALGCVLYACFILGRLCVPVFANMSREPFSTRALVLSILHATLPGIFMLLLIFFAFLHCWLNAFAEMLRFGDRMFYRDWWNSTSFSNYYRTWNVVVHDWLYSYVYQDGLRLLGARARGVAMLGVFLVSAVAHEYIFCFVLGFFYPVMLILFLVIGGMLNFMMHDQRTGPAWNVLMWTMLFLGQGIQVSLYCQEWYARRHCPLPQATFWGLVTPRSWSCHT

> <PDB ID(s) of Target Chain>


> <UniProt (SwissProt) Recommended Name of Target Chain>
Sterol O-acyltransferase 2

> <UniProt (SwissProt) Entry Name of Target Chain>
ACAT-2

> <UniProt (SwissProt) Primary ID of Target Chain>
O75908

> <UniProt (SwissProt) Secondary ID(s) of Target Chain>
F5H7W4 I6L9H9 Q4VB99 Q4VBA1 Q96TD4 Q9UNR2

> <UniProt (SwissProt) Alternative ID(s) of Target Chain>


> <UniProt (TrEMBL) Submitted Name of Target Chain>


> <UniProt (TrEMBL) Entry Name of Target Chain>


> <UniProt (TrEMBL) Primary ID of Target Chain>


> <UniProt (TrEMBL) Secondary ID(s) of Target Chain>


> <UniProt (TrEMBL) Alternative ID(s) of Target Chain>


$$$$

  Mrv0541 11241417102D          

 48 53  0  0  0  0            999 V2000
   22.9081  -29.3663    0.0000 C   0  0  0  0  0  0  0  0  0  0  0  0
   22.4997  -28.6539    0.0000 C   0  0  2  0  0  0  0  0  0  0  0  0
   22.0869  -29.3637    0.0000 C   0  0  0  0  0  0  0  0  0  0  0  0
   21.7914  -27.4205    0.0000 C   0  0  0  0  0  0  0  0  0  0  0  0
   21.7914  -28.2455    0.0000 C   0  0  2  0  0  0  0  0  0  0  0  0
   22.5035  -27.0039    0.0000 C   0  0  0  0  0  0  0  0  0  0  0  0
   23.2155  -27.4205    0.0000 C   0  0  1  0  0  0  0  0  0  0  0  0
   23.2165  -28.2455    0.0000 C   0  0  1  0  0  0  0  0  0  0  0  0
   23.9275  -28.6548    0.0000 C   0  0  0  0  0  0  0  0  0  0  0  0
   24.6421  -28.2437    0.0000 C   0  0  1  0  0  0  0  0  0  0  0  0
   23.9254  -27.0048    0.0000 C   0  0  2  0  0  0  0  0  0  0  0  0
   24.6407  -27.4234    0.0000 C   0  0  2  0  0  0  0  0  0  0  0  0
   25.3567  -27.0154    0.0000 O   0  0  0  0  0  0  0  0  0  0  0  0
   23.9263  -26.1785    0.0000 C   0  0  2  0  0  0  0  0  0  0  0  0
   24.6485  -25.7689    0.0000 C   0  0  0  0  0  0  0  0  0  0  0  0
   25.3666  -26.1911    0.0000 C   0  0  0  0  0  0  0  0  0  0  0  0
   26.0873  -25.7827    0.0000 C   0  0  0  0  0  0  0  0  0  0  0  0
   26.0962  -24.9503    0.0000 C   0  0  0  0  0  0  0  0  0  0  0  0
   25.3781  -24.5281    0.0000 O   0  0  0  0  0  0  0  0  0  0  0  0
   24.6512  -24.9383    0.0000 C   0  0  0  0  0  0  0  0  0  0  0  0
   26.8100  -24.5461    0.0000 C   0  0  0  0  0  0  0  0  0  0  0  0
   27.5208  -24.9669    0.0000 C   0  0  0  0  0  0  0  0  0  0  0  0
   28.2386  -24.5617    0.0000 N   0  0  0  0  0  0  0  0  0  0  0  0
   28.2467  -23.7358    0.0000 C   0  0  0  0  0  0  0  0  0  0  0  0
   27.5311  -23.3169    0.0000 C   0  0  0  0  0  0  0  0  0  0  0  0
   26.8162  -23.7244    0.0000 C   0  0  0  0  0  0  0  0  0  0  0  0
   23.9393  -24.5211    0.0000 O   0  0  0  0  0  0  0  0  0  0  0  0
   25.3566  -28.6561    0.0000 O   0  0  0  0  0  0  0  0  0  0  0  0
   26.0710  -28.2435    0.0000 C   0  0  0  0  0  0  0  0  0  0  0  0
   26.7855  -28.6559    0.0000 C   0  0  0  0  0  0  0  0  0  0  0  0
   26.0709  -27.4185    0.0000 O   0  0  0  0  0  0  0  0  0  0  0  0
   21.0776  -28.6591    0.0000 O   0  0  0  0  0  0  0  0  0  0  0  0
   20.3625  -28.2476    0.0000 C   0  0  0  0  0  0  0  0  0  0  0  0
   19.6487  -28.6612    0.0000 C   0  0  0  0  0  0  0  0  0  0  0  0
   20.3613  -27.4226    0.0000 O   0  0  0  0  0  0  0  0  0  0  0  0
   22.4933  -30.0795    0.0000 O   0  0  0  0  0  0  0  0  0  0  0  0
   22.9035  -30.7953    0.0000 C   0  0  0  0  0  0  0  0  0  0  0  0
   22.4887  -31.5084    0.0000 C   0  0  0  0  0  0  0  0  0  0  0  0
   23.7285  -30.7979    0.0000 O   0  0  0  0  0  0  0  0  0  0  0  0
   23.2137  -25.7629    0.0000 O   0  0  0  0  0  0  0  0  0  0  0  0
   23.2081  -26.5955    0.0000 C   0  0  0  0  0  0  0  0  0  0  0  0
   24.6331  -26.5955    0.0000 C   0  0  0  0  0  0  0  0  0  0  0  0
   26.7804  -29.4799    0.0000 C   0  0  0  0  0  0  0  0  0  0  0  0
   27.4940  -29.8922    0.0000 C   0  0  0  0  0  0  0  0  0  0  0  0
   28.2094  -29.4796    0.0000 C   0  0  0  0  0  0  0  0  0  0  0  0
   28.2067  -28.6504    0.0000 C   0  0  0  0  0  0  0  0  0  0  0  0
   27.4924  -28.2417    0.0000 C   0  0  0  0  0  0  0  0  0  0  0  0
   27.4882  -27.4168    0.0000 F   0  0  0  0  0  0  0  0  0  0  0  0
  2  1  1  6  0  0  0
  2  3  1  1  0  0  0
  5  4  1  0  0  0  0
  4  6  1  0  0  0  0
  2  5  1  0  0  0  0
  8  2  1  0  0  0  0
  7  6  1  0  0  0  0
  7  8  1  0  0  0  0
 11  7  1  1  0  0  0
  8  9  1  1  0  0  0
 10  9  1  0  0  0  0
 12 10  1  0  0  0  0
 11 12  1  0  0  0  0
 11 14  1  0  0  0  0
 12 13  1  0  0  0  0
 13 16  1  0  0  0  0
 14 15  1  0  0  0  0
 15 16  2  0  0  0  0
 15 20  1  0  0  0  0
 16 17  1  0  0  0  0
 17 18  2  0  0  0  0
 18 19  1  0  0  0  0
 19 20  1  0  0  0  0
 21 22  2  0  0  0  0
 22 23  1  0  0  0  0
 23 24  2  0  0  0  0
 24 25  1  0  0  0  0
 25 26  2  0  0  0  0
 26 21  1  0  0  0  0
 18 21  1  0  0  0  0
 20 27  2  0  0  0  0
 10 28  1  1  0  0  0
 28 29  1  0  0  0  0
 29 30  1  0  0  0  0
 29 31  2  0  0  0  0
  5 32  1  1  0  0  0
 32 33  1  0  0  0  0
 33 34  1  0  0  0  0
 33 35  2  0  0  0  0
  1 36  1  0  0  0  0
 36 37  1  0  0  0  0
 37 38  1  0  0  0  0
 37 39  2  0  0  0  0
 14 40  1  1  0  0  0
  7 41  1  1  0  0  0
 12 42  1  1  0  0  0
 30 43  2  0  0  0  0
 43 44  1  0  0  0  0
 44 45  2  0  0  0  0
 45 46  1  0  0  0  0
 46 47  2  0  0  0  0
 47 30  1  0  0  0  0
 47 48  1  0  0  0  0
M  END
> <From>
www.bindingDB.org

> <BindingDB Reactant_set_id>
51053273

> <Ligand InChI>
InChI=1S/C36H38FNO10/c1-19(39)44-18-35(4)26-16-28(47-32(42)22-10-6-7-11-23(22)37)36(5)31(34(26,3)13-12-27(35)45-20(2)40)30(41)29-25(48-36)15-24(46-33(29)43)21-9-8-14-38-17-21/h6-11,14-15,17,26-28,30-31,41H,12-13,16,18H2,1-5H3/t26-,27+,28+,30+,31-,34+,35+,36-/m1/s1

> <Ligand InChI Key>
BSSZCSYDAVWCHM-HRSZXCBJSA-N

> <BindingDB MonomerID>
50429583

> <BindingDB Ligand Name>
CHEMBL2334206

> <Target Name>
Sterol O-acyltransferase 2

> <Target Source Organism According to Curator or DataSource>


> <Ki (nM)>


> <IC50 (nM)>
 30

> <Kd (nM)>


> <EC50 (nM)>


> <kon (M-1-s-1)>


> <koff (s-1)>


> <pH>


> <Temp (C)>


> <Curation/DataSource>
ChEMBL

> <Article DOI>
10.1016/j.bmcl.2012.12.099

> <BindingDB Entry DOI>
10.7270/Q2P270HW

> <PMID>
23369538

> <PubChem AID>


> <Patent Number>


> <Authors>
Ohtawa, M; Yamazaki, H; Ohte, S; Matsuda, D; Ohshiro, T; Rudel, LL; Omura, S; Tomoda, H; Nagamitsu, T

> <Institution>
Kitasato University

> <Link to Ligand in BindingDB>
http://www.bindingdb.org/bind/chemsearch/marvin/MolStructure.jsp?monomerid=50429583

> <Link to Target in BindingDB>
http://www.bindingdb.org/jsp/dbsearch/PrimarySearch_ki.jsp?energyterm=kJ/mole&tag=pol&polymerid=7773&target=Sterol+O-acyltransferase+2&column=ki&startPg=0&Increment=50&submit=Search

> <Link to Ligand-Target Pair in BindingDB>
http://www.bindingdb.org/jsp/dbsearch/PrimarySearch_ki.jsp?energyterm=kJ/mole&tag=r21&monomerid=50429583&enzyme=Sterol+O-acyltransferase+2&column=ki&startPg=0&Increment=50&submit=Search

> <Ligand HET ID in PDB>


> <PDB ID(s) for Ligand-Target Complex>


> <PubChem CID>
71561296

> <PubChem SID>
164158458

> <ChEBI ID of Ligand>


> <ChEMBL ID of Ligand>
CHEMBL2334206

> <DrugBank ID of Ligand>


> <IUPHAR_GRAC ID of Ligand>


> <KEGG ID of Ligand>


> <ZINC ID of Ligand>
ZINC95587050

> <Number of Protein Chains in Target (>1 implies a multichain complex)>
1

> <BindingDB Target Chain Sequence>
MEPGGARLRLQRTEGLGGERERQPCGDGNTETHRAPDLVQWTRHMEAVKAQLLEQAQGQLRELLDRAMREAIQSYPSQDKPLPPPPPGSLSRTQEPSLGKQKVFIIRKSLLDELMEVQHFRTIYHMFIAGLCVFIISTLAIDFIDEGRLLLEFDLLIFSFGQLPLALVTWVPMFLSTLLAPYQALRLWARGTWTQATGLGCALLAAHAVVLCALPVHVAVEHQLPPASRCVLVFEQVRFLMKSYSFLREAVPGTLRARRGEGIQAPSFSSYLYFLFCPTLIYRETYPRTPYVRWNYVAKNFAQALGCVLYACFILGRLCVPVFANMSREPFSTRALVLSILHATLPGIFMLLLIFFAFLHCWLNAFAEMLRFGDRMFYRDWWNSTSFSNYYRTWNVVVHDWLYSYVYQDGLRLLGARARGVAMLGVFLVSAVAHEYIFCFVLGFFYPVMLILFLVIGGMLNFMMHDQRTGPAWNVLMWTMLFLGQGIQVSLYCQEWYARRHCPLPQATFWGLVTPRSWSCHT

> <PDB ID(s) of Target Chain>


> <UniProt (SwissProt) Recommended Name of Target Chain>
Sterol O-acyltransferase 2

> <UniProt (SwissProt) Entry Name of Target Chain>
ACAT-2

> <UniProt (SwissProt) Primary ID of Target Chain>
O75908

> <UniProt (SwissProt) Secondary ID(s) of Target Chain>
F5H7W4 I6L9H9 Q4VB99 Q4VBA1 Q96TD4 Q9UNR2

> <UniProt (SwissProt) Alternative ID(s) of Target Chain>


> <UniProt (TrEMBL) Submitted Name of Target Chain>


> <UniProt (TrEMBL) Entry Name of Target Chain>


> <UniProt (TrEMBL) Primary ID of Target Chain>


> <UniProt (TrEMBL) Secondary ID(s) of Target Chain>


> <UniProt (TrEMBL) Alternative ID(s) of Target Chain>


$$$$

  Mrv0541 11241418062D          

 50 57  0  0  0  0            999 V2000
    9.4251  -19.6717    0.0000 C   0  0  0  0  0  0  0  0  0  0  0  0
   10.1377  -19.2547    0.0000 C   0  0  0  0  0  0  0  0  0  0  0  0
   10.8504  -19.6717    0.0000 C   0  0  1  0  0  0  0  0  0  0  0  0
   10.8514  -20.4975    0.0000 C   0  0  1  0  0  0  0  0  0  0  0  0
   11.5632  -20.9072    0.0000 C   0  0  0  0  0  0  0  0  0  0  0  0
   12.2783  -20.4957    0.0000 C   0  0  1  0  0  0  0  0  0  0  0  0
   11.5611  -19.2557    0.0000 C   0  0  2  0  0  0  0  0  0  0  0  0
   12.2729  -19.6722    0.0000 C   0  0  2  0  0  0  0  0  0  0  0  0
   12.9857  -19.2662    0.0000 O   0  0  0  0  0  0  0  0  0  0  0  0
   11.5619  -18.4331    0.0000 C   0  0  2  0  0  0  0  0  0  0  0  0
   10.1377  -20.9062    0.0000 C   0  0  1  0  0  0  0  0  0  0  0  0
    9.4251  -20.4975    0.0000 C   0  0  1  0  0  0  0  0  0  0  0  0
    8.7188  -20.9080    0.0000 O   0  0  0  0  0  0  0  0  0  0  0  0
    8.7189  -21.7290    0.0000 C   0  0  1  0  0  0  0  0  0  0  0  0
    9.4315  -22.1377    0.0000 O   0  0  0  0  0  0  0  0  0  0  0  0
   10.1441  -21.7255    0.0000 C   0  0  0  0  0  0  0  0  0  0  0  0
   12.2808  -18.0255    0.0000 C   0  0  0  0  0  0  0  0  0  0  0  0
   12.9912  -18.4436    0.0000 C   0  0  0  0  0  0  0  0  0  0  0  0
   13.7045  -18.0396    0.0000 C   0  0  0  0  0  0  0  0  0  0  0  0
   13.7137  -17.2161    0.0000 C   0  0  0  0  0  0  0  0  0  0  0  0
   13.0033  -16.7980    0.0000 O   0  0  0  0  0  0  0  0  0  0  0  0
   12.2838  -17.2035    0.0000 C   0  0  0  0  0  0  0  0  0  0  0  0
   11.5715  -16.7857    0.0000 O   0  0  0  0  0  0  0  0  0  0  0  0
   10.8486  -18.0171    0.0000 O   0  0  0  0  0  0  0  0  0  0  0  0
   12.2652  -18.8460    0.0000 C   0  0  0  0  0  0  0  0  0  0  0  0
   12.9945  -20.9067    0.0000 O   0  0  0  0  0  0  0  0  0  0  0  0
   10.8430  -18.8460    0.0000 C   0  0  0  0  0  0  0  0  0  0  0  0
   10.1299  -20.0805    0.0000 C   0  0  0  0  0  0  0  0  0  0  0  0
   13.7086  -20.4921    0.0000 C   0  0  0  0  0  0  0  0  0  0  0  0
   14.4247  -20.9032    0.0000 C   0  0  0  0  0  0  0  0  0  0  0  0
   13.7065  -19.6664    0.0000 O   0  0  0  0  0  0  0  0  0  0  0  0
   14.4247  -21.7288    0.0000 C   0  0  0  0  0  0  0  0  0  0  0  0
   15.1400  -22.1399    0.0000 C   0  0  0  0  0  0  0  0  0  0  0  0
   15.8550  -21.7251    0.0000 C   0  0  0  0  0  0  0  0  0  0  0  0
   15.8503  -20.8951    0.0000 C   0  0  0  0  0  0  0  0  0  0  0  0
   15.1345  -20.4879    0.0000 C   0  0  0  0  0  0  0  0  0  0  0  0
   14.4331  -16.8109    0.0000 C   0  0  0  0  0  0  0  0  0  0  0  0
   15.1444  -17.2324    0.0000 C   0  0  0  0  0  0  0  0  0  0  0  0
   15.8630  -16.8272    0.0000 N   0  0  0  0  0  0  0  0  0  0  0  0
   15.8715  -16.0006    0.0000 C   0  0  0  0  0  0  0  0  0  0  0  0
   15.1554  -15.5810    0.0000 C   0  0  0  0  0  0  0  0  0  0  0  0
   14.4398  -15.9885    0.0000 C   0  0  0  0  0  0  0  0  0  0  0  0
   15.1454  -22.9621    0.0000 C   0  0  0  0  0  0  0  0  0  0  0  0
   15.1471  -23.7878    0.0000 N   0  0  0  0  0  0  0  0  0  0  0  0
    8.0050  -22.1426    0.0000 C   0  0  0  0  0  0  0  0  0  0  0  0
    7.2906  -21.7301    0.0000 C   0  0  0  0  0  0  0  0  0  0  0  0
    6.5761  -22.1426    0.0000 C   0  0  0  0  0  0  0  0  0  0  0  0
    6.5761  -22.9676    0.0000 C   0  0  0  0  0  0  0  0  0  0  0  0
    7.2906  -23.3801    0.0000 C   0  0  0  0  0  0  0  0  0  0  0  0
    8.0050  -22.9676    0.0000 C   0  0  0  0  0  0  0  0  0  0  0  0
 12  1  1  0  0  0  0
  1  2  1  0  0  0  0
  4 11  1  0  0  0  0
  3  2  1  0  0  0  0
  3  4  1  0  0  0  0
  7  3  1  1  0  0  0
  4  5  1  1  0  0  0
  6  5  1  0  0  0  0
  8  6  1  0  0  0  0
  7  8  1  0  0  0  0
  7 10  1  0  0  0  0
  8  9  1  0  0  0  0
  9 18  1  0  0  0  0
 10 17  1  0  0  0  0
 11 12  1  0  0  0  0
 11 16  1  0  0  0  0
 12 13  1  1  0  0  0
 14 13  1  0  0  0  0
 14 15  1  0  0  0  0
 15 16  1  0  0  0  0
 17 18  2  0  0  0  0
 17 22  1  0  0  0  0
 18 19  1  0  0  0  0
 19 20  2  0  0  0  0
 20 21  1  0  0  0  0
 21 22  1  0  0  0  0
 22 23  2  0  0  0  0
 10 24  1  1  0  0  0
  8 25  1  1  0  0  0
  6 26  1  1  0  0  0
  3 27  1  1  0  0  0
 11 28  1  1  0  0  0
 26 29  1  0  0  0  0
 29 30  1  0  0  0  0
 29 31  2  0  0  0  0
 30 32  2  0  0  0  0
 32 33  1  0  0  0  0
 33 34  2  0  0  0  0
 34 35  1  0  0  0  0
 35 36  2  0  0  0  0
 36 30  1  0  0  0  0
 37 38  2  0  0  0  0
 38 39  1  0  0  0  0
 39 40  2  0  0  0  0
 40 41  1  0  0  0  0
 41 42  2  0  0  0  0
 42 37  1  0  0  0  0
 20 37  1  0  0  0  0
 43 44  3  0  0  0  0
 33 43  1  0  0  0  0
 14 45  1  1  0  0  0
 50 45  2  0  0  0  0
 46 45  1  0  0  0  0
 46 47  2  0  0  0  0
 47 48  1  0  0  0  0
 48 49  2  0  0  0  0
 49 50  1  0  0  0  0
M  END
> <From>
www.bindingDB.org

> <BindingDB Reactant_set_id>
51068424

> <Ligand InChI>
InChI=1S/C40H38N2O8/c1-38-15-14-30-39(2,22-46-37(49-30)24-10-5-4-6-11-24)29(38)19-31(48-35(44)25-12-7-9-23(17-25)20-41)40(3)34(38)33(43)32-28(50-40)18-27(47-36(32)45)26-13-8-16-42-21-26/h4-13,16-18,21,29-31,33-34,37,43H,14-15,19,22H2,1-3H3/t29-,30+,31+,33+,34-,37-,38+,39+,40-/m1/s1

> <Ligand InChI Key>
XYTSXLWNAAXFIS-WVGFPPCDSA-N

> <BindingDB MonomerID>
50436337

> <BindingDB Ligand Name>
CHEMBL2396680

> <Target Name>
Sterol O-acyltransferase 2

> <Target Source Organism According to Curator or DataSource>


> <Ki (nM)>


> <IC50 (nM)>
 30

> <Kd (nM)>


> <EC50 (nM)>


> <kon (M-1-s-1)>


> <koff (s-1)>


> <pH>


> <Temp (C)>


> <Curation/DataSource>
ChEMBL

> <Article DOI>
10.1016/j.bmcl.2013.04.075

> <BindingDB Entry DOI>
10.7270/Q2WD41Z9

> <PMID>
23711919

> <PubChem AID>


> <Patent Number>


> <Authors>
Ohtawa, M; Yamazaki, H; Ohte, S; Matsuda, D; Ohshiro, T; Rudel, LL; Omura, S; Tomoda, H; Nagamitsu, T

> <Institution>
Kitasato University

> <Link to Ligand in BindingDB>
http://www.bindingdb.org/bind/chemsearch/marvin/MolStructure.jsp?monomerid=50436337

> <Link to Target in BindingDB>
http://www.bindingdb.org/jsp/dbsearch/PrimarySearch_ki.jsp?energyterm=kJ/mole&tag=pol&polymerid=7773&target=Sterol+O-acyltransferase+2&column=ki&startPg=0&Increment=50&submit=Search

> <Link to Ligand-Target Pair in BindingDB>
http://www.bindingdb.org/jsp/dbsearch/PrimarySearch_ki.jsp?energyterm=kJ/mole&tag=r21&monomerid=50436337&enzyme=Sterol+O-acyltransferase+2&column=ki&startPg=0&Increment=50&submit=Search

> <Ligand HET ID in PDB>


> <PDB ID(s) for Ligand-Target Complex>


> <PubChem CID>
71682352

> <PubChem SID>
175448654

> <ChEBI ID of Ligand>


> <ChEMBL ID of Ligand>
CHEMBL2396680

> <DrugBank ID of Ligand>


> <IUPHAR_GRAC ID of Ligand>


> <KEGG ID of Ligand>


> <ZINC ID of Ligand>
ZINC96272250

> <Number of Protein Chains in Target (>1 implies a multichain complex)>
1

> <BindingDB Target Chain Sequence>
MEPGGARLRLQRTEGLGGERERQPCGDGNTETHRAPDLVQWTRHMEAVKAQLLEQAQGQLRELLDRAMREAIQSYPSQDKPLPPPPPGSLSRTQEPSLGKQKVFIIRKSLLDELMEVQHFRTIYHMFIAGLCVFIISTLAIDFIDEGRLLLEFDLLIFSFGQLPLALVTWVPMFLSTLLAPYQALRLWARGTWTQATGLGCALLAAHAVVLCALPVHVAVEHQLPPASRCVLVFEQVRFLMKSYSFLREAVPGTLRARRGEGIQAPSFSSYLYFLFCPTLIYRETYPRTPYVRWNYVAKNFAQALGCVLYACFILGRLCVPVFANMSREPFSTRALVLSILHATLPGIFMLLLIFFAFLHCWLNAFAEMLRFGDRMFYRDWWNSTSFSNYYRTWNVVVHDWLYSYVYQDGLRLLGARARGVAMLGVFLVSAVAHEYIFCFVLGFFYPVMLILFLVIGGMLNFMMHDQRTGPAWNVLMWTMLFLGQGIQVSLYCQEWYARRHCPLPQATFWGLVTPRSWSCHT

> <PDB ID(s) of Target Chain>


> <UniProt (SwissProt) Recommended Name of Target Chain>
Sterol O-acyltransferase 2

> <UniProt (SwissProt) Entry Name of Target Chain>
ACAT-2

> <UniProt (SwissProt) Primary ID of Target Chain>
O75908

> <UniProt (SwissProt) Secondary ID(s) of Target Chain>
F5H7W4 I6L9H9 Q4VB99 Q4VBA1 Q96TD4 Q9UNR2

> <UniProt (SwissProt) Alternative ID(s) of Target Chain>


> <UniProt (TrEMBL) Submitted Name of Target Chain>


> <UniProt (TrEMBL) Entry Name of Target Chain>


> <UniProt (TrEMBL) Primary ID of Target Chain>


> <UniProt (TrEMBL) Secondary ID(s) of Target Chain>


> <UniProt (TrEMBL) Alternative ID(s) of Target Chain>


$$$$

  Mrv0541 11241418062D          

 49 56  0  0  0  0            999 V2000
   16.6284  -19.9065    0.0000 C   0  0  0  0  0  0  0  0  0  0  0  0
   17.3410  -19.4894    0.0000 C   0  0  0  0  0  0  0  0  0  0  0  0
   18.0538  -19.9065    0.0000 C   0  0  1  0  0  0  0  0  0  0  0  0
   18.0549  -20.7323    0.0000 C   0  0  1  0  0  0  0  0  0  0  0  0
   18.7666  -21.1420    0.0000 C   0  0  0  0  0  0  0  0  0  0  0  0
   19.4818  -20.7304    0.0000 C   0  0  1  0  0  0  0  0  0  0  0  0
   18.7644  -19.4904    0.0000 C   0  0  2  0  0  0  0  0  0  0  0  0
   19.4765  -19.9069    0.0000 C   0  0  2  0  0  0  0  0  0  0  0  0
   20.1892  -19.5009    0.0000 O   0  0  0  0  0  0  0  0  0  0  0  0
   18.7653  -18.6678    0.0000 C   0  0  2  0  0  0  0  0  0  0  0  0
   17.3410  -21.1410    0.0000 C   0  0  1  0  0  0  0  0  0  0  0  0
   16.6284  -20.7323    0.0000 C   0  0  1  0  0  0  0  0  0  0  0  0
   15.9220  -21.1429    0.0000 O   0  0  0  0  0  0  0  0  0  0  0  0
   15.9221  -21.9639    0.0000 C   0  0  1  0  0  0  0  0  0  0  0  0
   16.6348  -22.3725    0.0000 O   0  0  0  0  0  0  0  0  0  0  0  0
   17.3474  -21.9603    0.0000 C   0  0  0  0  0  0  0  0  0  0  0  0
   19.4842  -18.2601    0.0000 C   0  0  0  0  0  0  0  0  0  0  0  0
   20.1946  -18.6783    0.0000 C   0  0  0  0  0  0  0  0  0  0  0  0
   20.9080  -18.2743    0.0000 C   0  0  0  0  0  0  0  0  0  0  0  0
   20.9172  -17.4507    0.0000 C   0  0  0  0  0  0  0  0  0  0  0  0
   20.2068  -17.0325    0.0000 O   0  0  0  0  0  0  0  0  0  0  0  0
   19.4872  -17.4380    0.0000 C   0  0  0  0  0  0  0  0  0  0  0  0
   18.7750  -17.0202    0.0000 O   0  0  0  0  0  0  0  0  0  0  0  0
   18.0519  -18.2518    0.0000 O   0  0  0  0  0  0  0  0  0  0  0  0
   19.4686  -19.0807    0.0000 C   0  0  0  0  0  0  0  0  0  0  0  0
   20.1980  -21.1416    0.0000 O   0  0  0  0  0  0  0  0  0  0  0  0
   18.0464  -19.0807    0.0000 C   0  0  0  0  0  0  0  0  0  0  0  0
   17.3333  -20.3152    0.0000 C   0  0  0  0  0  0  0  0  0  0  0  0
   20.9121  -20.7269    0.0000 C   0  0  0  0  0  0  0  0  0  0  0  0
   21.6283  -21.1380    0.0000 C   0  0  0  0  0  0  0  0  0  0  0  0
   20.9100  -19.9011    0.0000 O   0  0  0  0  0  0  0  0  0  0  0  0
   21.6283  -21.9638    0.0000 C   0  0  0  0  0  0  0  0  0  0  0  0
   22.3436  -22.3747    0.0000 C   0  0  0  0  0  0  0  0  0  0  0  0
   23.0588  -21.9600    0.0000 C   0  0  0  0  0  0  0  0  0  0  0  0
   23.0540  -21.1300    0.0000 C   0  0  0  0  0  0  0  0  0  0  0  0
   22.3381  -20.7226    0.0000 C   0  0  0  0  0  0  0  0  0  0  0  0
   21.6367  -17.0455    0.0000 C   0  0  0  0  0  0  0  0  0  0  0  0
   22.3481  -17.4670    0.0000 C   0  0  0  0  0  0  0  0  0  0  0  0
   23.0666  -17.0618    0.0000 N   0  0  0  0  0  0  0  0  0  0  0  0
   23.0751  -16.2351    0.0000 C   0  0  0  0  0  0  0  0  0  0  0  0
   22.3591  -15.8154    0.0000 C   0  0  0  0  0  0  0  0  0  0  0  0
   21.6433  -16.2231    0.0000 C   0  0  0  0  0  0  0  0  0  0  0  0
   22.3453  -23.2005    0.0000 Br  0  0  0  0  0  0  0  0  0  0  0  0
   15.2083  -22.3775    0.0000 C   0  0  0  0  0  0  0  0  0  0  0  0
   14.4938  -21.9650    0.0000 C   0  0  0  0  0  0  0  0  0  0  0  0
   13.7793  -22.3775    0.0000 C   0  0  0  0  0  0  0  0  0  0  0  0
   13.7793  -23.2025    0.0000 C   0  0  0  0  0  0  0  0  0  0  0  0
   14.4938  -23.6151    0.0000 C   0  0  0  0  0  0  0  0  0  0  0  0
   15.2083  -23.2025    0.0000 C   0  0  0  0  0  0  0  0  0  0  0  0
 12  1  1  0  0  0  0
  1  2  1  0  0  0  0
  4 11  1  0  0  0  0
  3  2  1  0  0  0  0
  3  4  1  0  0  0  0
  7  3  1  1  0  0  0
  4  5  1  1  0  0  0
  6  5  1  0  0  0  0
  8  6  1  0  0  0  0
  7  8  1  0  0  0  0
  7 10  1  0  0  0  0
  8  9  1  0  0  0  0
  9 18  1  0  0  0  0
 10 17  1  0  0  0  0
 11 12  1  0  0  0  0
 11 16  1  0  0  0  0
 12 13  1  1  0  0  0
 14 13  1  0  0  0  0
 14 15  1  0  0  0  0
 15 16  1  0  0  0  0
 17 18  2  0  0  0  0
 17 22  1  0  0  0  0
 18 19  1  0  0  0  0
 19 20  2  0  0  0  0
 20 21  1  0  0  0  0
 21 22  1  0  0  0  0
 22 23  2  0  0  0  0
 10 24  1  1  0  0  0
  8 25  1  1  0  0  0
  6 26  1  1  0  0  0
  3 27  1  1  0  0  0
 11 28  1  1  0  0  0
 26 29  1  0  0  0  0
 29 30  1  0  0  0  0
 29 31  2  0  0  0  0
 30 32  2  0  0  0  0
 32 33  1  0  0  0  0
 33 34  2  0  0  0  0
 34 35  1  0  0  0  0
 35 36  2  0  0  0  0
 36 30  1  0  0  0  0
 37 38  2  0  0  0  0
 38 39  1  0  0  0  0
 39 40  2  0  0  0  0
 40 41  1  0  0  0  0
 41 42  2  0  0  0  0
 42 37  1  0  0  0  0
 20 37  1  0  0  0  0
 33 43  1  0  0  0  0
 14 44  1  1  0  0  0
 49 44  2  0  0  0  0
 45 44  1  0  0  0  0
 45 46  2  0  0  0  0
 46 47  1  0  0  0  0
 47 48  2  0  0  0  0
 48 49  1  0  0  0  0
M  END
> <From>
www.bindingDB.org

> <BindingDB Reactant_set_id>
51068423

> <Ligand InChI>
InChI=1S/C39H38BrNO8/c1-37-15-14-29-38(2,21-45-36(48-29)22-9-5-4-6-10-22)28(37)19-30(47-34(43)23-11-7-13-25(40)17-23)39(3)33(37)32(42)31-27(49-39)18-26(46-35(31)44)24-12-8-16-41-20-24/h4-13,16-18,20,28-30,32-33,36,42H,14-15,19,21H2,1-3H3/t28-,29+,30+,32+,33-,36-,37+,38+,39-/m1/s1

> <Ligand InChI Key>
WFUZEGYAYGGPQL-MKSFZIRSSA-N

> <BindingDB MonomerID>
50436336

> <BindingDB Ligand Name>
CHEMBL2396681

> <Target Name>
Sterol O-acyltransferase 2

> <Target Source Organism According to Curator or DataSource>


> <Ki (nM)>


> <IC50 (nM)>
 30

> <Kd (nM)>


> <EC50 (nM)>


> <kon (M-1-s-1)>


> <koff (s-1)>


> <pH>


> <Temp (C)>


> <Curation/DataSource>
ChEMBL

> <Article DOI>
10.1016/j.bmcl.2013.04.075

> <BindingDB Entry DOI>
10.7270/Q2WD41Z9

> <PMID>
23711919

> <PubChem AID>


> <Patent Number>


> <Authors>
Ohtawa, M; Yamazaki, H; Ohte, S; Matsuda, D; Ohshiro, T; Rudel, LL; Omura, S; Tomoda, H; Nagamitsu, T

> <Institution>
Kitasato University

> <Link to Ligand in BindingDB>
http://www.bindingdb.org/bind/chemsearch/marvin/MolStructure.jsp?monomerid=50436336

> <Link to Target in BindingDB>
http://www.bindingdb.org/jsp/dbsearch/PrimarySearch_ki.jsp?energyterm=kJ/mole&tag=pol&polymerid=7773&target=Sterol+O-acyltransferase+2&column=ki&startPg=0&Increment=50&submit=Search

> <Link to Ligand-Target Pair in BindingDB>
http://www.bindingdb.org/jsp/dbsearch/PrimarySearch_ki.jsp?energyterm=kJ/mole&tag=r21&monomerid=50436336&enzyme=Sterol+O-acyltransferase+2&column=ki&startPg=0&Increment=50&submit=Search

> <Ligand HET ID in PDB>


> <PDB ID(s) for Ligand-Target Complex>


> <PubChem CID>
71682353

> <PubChem SID>
175448653

> <ChEBI ID of Ligand>


> <ChEMBL ID of Ligand>
CHEMBL2396681

> <DrugBank ID of Ligand>


> <IUPHAR_GRAC ID of Ligand>


> <KEGG ID of Ligand>


> <ZINC ID of Ligand>
ZINC96272249

> <Number of Protein Chains in Target (>1 implies a multichain complex)>
1

> <BindingDB Target Chain Sequence>
MEPGGARLRLQRTEGLGGERERQPCGDGNTETHRAPDLVQWTRHMEAVKAQLLEQAQGQLRELLDRAMREAIQSYPSQDKPLPPPPPGSLSRTQEPSLGKQKVFIIRKSLLDELMEVQHFRTIYHMFIAGLCVFIISTLAIDFIDEGRLLLEFDLLIFSFGQLPLALVTWVPMFLSTLLAPYQALRLWARGTWTQATGLGCALLAAHAVVLCALPVHVAVEHQLPPASRCVLVFEQVRFLMKSYSFLREAVPGTLRARRGEGIQAPSFSSYLYFLFCPTLIYRETYPRTPYVRWNYVAKNFAQALGCVLYACFILGRLCVPVFANMSREPFSTRALVLSILHATLPGIFMLLLIFFAFLHCWLNAFAEMLRFGDRMFYRDWWNSTSFSNYYRTWNVVVHDWLYSYVYQDGLRLLGARARGVAMLGVFLVSAVAHEYIFCFVLGFFYPVMLILFLVIGGMLNFMMHDQRTGPAWNVLMWTMLFLGQGIQVSLYCQEWYARRHCPLPQATFWGLVTPRSWSCHT

> <PDB ID(s) of Target Chain>


> <UniProt (SwissProt) Recommended Name of Target Chain>
Sterol O-acyltransferase 2

> <UniProt (SwissProt) Entry Name of Target Chain>
ACAT-2

> <UniProt (SwissProt) Primary ID of Target Chain>
O75908

> <UniProt (SwissProt) Secondary ID(s) of Target Chain>
F5H7W4 I6L9H9 Q4VB99 Q4VBA1 Q96TD4 Q9UNR2

> <UniProt (SwissProt) Alternative ID(s) of Target Chain>


> <UniProt (TrEMBL) Submitted Name of Target Chain>


> <UniProt (TrEMBL) Entry Name of Target Chain>


> <UniProt (TrEMBL) Primary ID of Target Chain>


> <UniProt (TrEMBL) Secondary ID(s) of Target Chain>


> <UniProt (TrEMBL) Alternative ID(s) of Target Chain>


$$$$

  Mrv0541 11241418062D          

 52 59  0  0  0  0            999 V2000
   20.7634  -20.8007    0.0000 C   0  0  0  0  0  0  0  0  0  0  0  0
   21.4766  -20.3816    0.0000 C   0  0  0  0  0  0  0  0  0  0  0  0
   22.1898  -20.8007    0.0000 C   0  0  1  0  0  0  0  0  0  0  0  0
   22.1908  -21.6264    0.0000 C   0  0  1  0  0  0  0  0  0  0  0  0
   22.9031  -22.0341    0.0000 C   0  0  0  0  0  0  0  0  0  0  0  0
   23.6146  -21.6246    0.0000 C   0  0  1  0  0  0  0  0  0  0  0  0
   22.9010  -20.3826    0.0000 C   0  0  2  0  0  0  0  0  0  0  0  0
   23.6093  -20.8012    0.0000 C   0  0  2  0  0  0  0  0  0  0  0  0
   24.3226  -20.3930    0.0000 O   0  0  0  0  0  0  0  0  0  0  0  0
   22.9018  -19.5600    0.0000 C   0  0  2  0  0  0  0  0  0  0  0  0
   21.4766  -22.0331    0.0000 C   0  0  1  0  0  0  0  0  0  0  0  0
   20.7634  -21.6264    0.0000 C   0  0  1  0  0  0  0  0  0  0  0  0
   20.0564  -22.0349    0.0000 O   0  0  0  0  0  0  0  0  0  0  0  0
   20.0565  -22.8558    0.0000 C   0  0  1  0  0  0  0  0  0  0  0  0
   20.7697  -23.2666    0.0000 O   0  0  0  0  0  0  0  0  0  0  0  0
   21.4828  -22.8523    0.0000 C   0  0  0  0  0  0  0  0  0  0  0  0
   23.6171  -19.1544    0.0000 C   0  0  0  0  0  0  0  0  0  0  0  0
   24.3280  -19.5704    0.0000 C   0  0  0  0  0  0  0  0  0  0  0  0
   25.0419  -19.1685    0.0000 C   0  0  0  0  0  0  0  0  0  0  0  0
   25.0509  -18.3449    0.0000 C   0  0  0  0  0  0  0  0  0  0  0  0
   24.3401  -17.9249    0.0000 O   0  0  0  0  0  0  0  0  0  0  0  0
   23.6200  -18.3324    0.0000 C   0  0  0  0  0  0  0  0  0  0  0  0
   22.9113  -17.9126    0.0000 O   0  0  0  0  0  0  0  0  0  0  0  0
   22.1879  -19.1462    0.0000 O   0  0  0  0  0  0  0  0  0  0  0  0
   23.6015  -19.9750    0.0000 C   0  0  0  0  0  0  0  0  0  0  0  0
   24.3313  -22.0336    0.0000 O   0  0  0  0  0  0  0  0  0  0  0  0
   22.1825  -19.9750    0.0000 C   0  0  0  0  0  0  0  0  0  0  0  0
   21.4687  -21.2074    0.0000 C   0  0  0  0  0  0  0  0  0  0  0  0
   25.0459  -21.6210    0.0000 C   0  0  0  0  0  0  0  0  0  0  0  0
   25.7626  -22.0300    0.0000 C   0  0  0  0  0  0  0  0  0  0  0  0
   25.0439  -20.7953    0.0000 O   0  0  0  0  0  0  0  0  0  0  0  0
   25.7626  -22.8556    0.0000 C   0  0  0  0  0  0  0  0  0  0  0  0
   26.4785  -23.2687    0.0000 C   0  0  0  0  0  0  0  0  0  0  0  0
   27.1941  -22.8519    0.0000 C   0  0  0  0  0  0  0  0  0  0  0  0
   27.1893  -22.0220    0.0000 C   0  0  0  0  0  0  0  0  0  0  0  0
   26.4729  -21.6168    0.0000 C   0  0  0  0  0  0  0  0  0  0  0  0
   25.7709  -17.9376    0.0000 C   0  0  0  0  0  0  0  0  0  0  0  0
   26.4828  -18.3612    0.0000 C   0  0  0  0  0  0  0  0  0  0  0  0
   27.2019  -17.9539    0.0000 N   0  0  0  0  0  0  0  0  0  0  0  0
   27.2104  -17.1273    0.0000 C   0  0  0  0  0  0  0  0  0  0  0  0
   26.4938  -16.7098    0.0000 C   0  0  0  0  0  0  0  0  0  0  0  0
   25.7775  -17.1153    0.0000 C   0  0  0  0  0  0  0  0  0  0  0  0
   19.3415  -23.2719    0.0000 C   0  0  0  0  0  0  0  0  0  0  0  0
   18.6283  -22.8549    0.0000 C   0  0  0  0  0  0  0  0  0  0  0  0
   17.9138  -23.2704    0.0000 C   0  0  0  0  0  0  0  0  0  0  0  0
   17.9146  -24.0970    0.0000 C   0  0  0  0  0  0  0  0  0  0  0  0
   18.6358  -24.5064    0.0000 C   0  0  0  0  0  0  0  0  0  0  0  0
   19.3474  -24.0929    0.0000 C   0  0  0  0  0  0  0  0  0  0  0  0
   27.9102  -23.2599    0.0000 C   0  0  0  0  0  0  0  0  0  0  0  0
   28.6275  -23.6679    0.0000 N   0  0  0  0  0  0  0  0  0  0  0  0
   20.0658  -24.4992    0.0000 O   0  0  0  0  0  0  0  0  0  0  0  0
   20.0710  -25.3249    0.0000 C   0  0  0  0  0  0  0  0  0  0  0  0
 12  1  1  0  0  0  0
  1  2  1  0  0  0  0
  4 11  1  0  0  0  0
  3  2  1  0  0  0  0
  3  4  1  0  0  0  0
  7  3  1  1  0  0  0
  4  5  1  1  0  0  0
  6  5  1  0  0  0  0
  8  6  1  0  0  0  0
  7  8  1  0  0  0  0
  7 10  1  0  0  0  0
  8  9  1  0  0  0  0
  9 18  1  0  0  0  0
 10 17  1  0  0  0  0
 11 12  1  0  0  0  0
 11 16  1  0  0  0  0
 12 13  1  1  0  0  0
 14 13  1  0  0  0  0
 14 15  1  0  0  0  0
 15 16  1  0  0  0  0
 17 18  2  0  0  0  0
 17 22  1  0  0  0  0
 18 19  1  0  0  0  0
 19 20  2  0  0  0  0
 20 21  1  0  0  0  0
 21 22  1  0  0  0  0
 22 23  2  0  0  0  0
 10 24  1  1  0  0  0
  8 25  1  1  0  0  0
  6 26  1  1  0  0  0
  3 27  1  1  0  0  0
 11 28  1  1  0  0  0
 26 29  1  0  0  0  0
 29 30  1  0  0  0  0
 29 31  2  0  0  0  0
 30 32  2  0  0  0  0
 32 33  1  0  0  0  0
 33 34  2  0  0  0  0
 34 35  1  0  0  0  0
 35 36  2  0  0  0  0
 36 30  1  0  0  0  0
 37 38  2  0  0  0  0
 38 39  1  0  0  0  0
 39 40  2  0  0  0  0
 40 41  1  0  0  0  0
 41 42  2  0  0  0  0
 42 37  1  0  0  0  0
 20 37  1  0  0  0  0
 14 43  1  1  0  0  0
 43 44  2  0  0  0  0
 44 45  1  0  0  0  0
 45 46  2  0  0  0  0
 46 47  1  0  0  0  0
 47 48  2  0  0  0  0
 48 43  1  0  0  0  0
 49 50  3  0  0  0  0
 34 49  1  0  0  0  0
 48 51  1  0  0  0  0
 51 52  1  0  0  0  0
M  END
> <From>
www.bindingDB.org

> <BindingDB Reactant_set_id>
51068464

> <Ligand InChI>
InChI=1S/C41H40N2O9/c1-39-16-15-31-40(2,22-48-38(51-31)26-9-5-6-10-27(26)47-4)30(39)19-32(50-36(45)24-13-11-23(20-42)12-14-24)41(3)35(39)34(44)33-29(52-41)18-28(49-37(33)46)25-8-7-17-43-21-25/h5-14,17-18,21,30-32,34-35,38,44H,15-16,19,22H2,1-4H3/t30-,31+,32+,34+,35-,38-,39+,40+,41-/m1/s1

> <Ligand InChI Key>
DEXUFEXBFAJKNS-KFSBURAESA-N

> <BindingDB MonomerID>
50436349

> <BindingDB Ligand Name>
CHEMBL2398810

> <Target Name>
Sterol O-acyltransferase 2

> <Target Source Organism According to Curator or DataSource>


> <Ki (nM)>


> <IC50 (nM)>
 37

> <Kd (nM)>


> <EC50 (nM)>


> <kon (M-1-s-1)>


> <koff (s-1)>


> <pH>


> <Temp (C)>


> <Curation/DataSource>
ChEMBL

> <Article DOI>
10.1016/j.bmcl.2013.04.075

> <BindingDB Entry DOI>
10.7270/Q2WD41Z9

> <PMID>
23711919

> <PubChem AID>


> <Patent Number>


> <Authors>
Ohtawa, M; Yamazaki, H; Ohte, S; Matsuda, D; Ohshiro, T; Rudel, LL; Omura, S; Tomoda, H; Nagamitsu, T

> <Institution>
Kitasato University

> <Link to Ligand in BindingDB>
http://www.bindingdb.org/bind/chemsearch/marvin/MolStructure.jsp?monomerid=50436349

> <Link to Target in BindingDB>
http://www.bindingdb.org/jsp/dbsearch/PrimarySearch_ki.jsp?energyterm=kJ/mole&tag=pol&polymerid=7773&target=Sterol+O-acyltransferase+2&column=ki&startPg=0&Increment=50&submit=Search

> <Link to Ligand-Target Pair in BindingDB>
http://www.bindingdb.org/jsp/dbsearch/PrimarySearch_ki.jsp?energyterm=kJ/mole&tag=r21&monomerid=50436349&enzyme=Sterol+O-acyltransferase+2&column=ki&startPg=0&Increment=50&submit=Search

> <Ligand HET ID in PDB>


> <PDB ID(s) for Ligand-Target Complex>


> <PubChem CID>
71682968

> <PubChem SID>
175448666

> <ChEBI ID of Ligand>


> <ChEMBL ID of Ligand>
CHEMBL2398810

> <DrugBank ID of Ligand>


> <IUPHAR_GRAC ID of Ligand>


> <KEGG ID of Ligand>


> <ZINC ID of Ligand>
ZINC96272261

> <Number of Protein Chains in Target (>1 implies a multichain complex)>
1

> <BindingDB Target Chain Sequence>
MEPGGARLRLQRTEGLGGERERQPCGDGNTETHRAPDLVQWTRHMEAVKAQLLEQAQGQLRELLDRAMREAIQSYPSQDKPLPPPPPGSLSRTQEPSLGKQKVFIIRKSLLDELMEVQHFRTIYHMFIAGLCVFIISTLAIDFIDEGRLLLEFDLLIFSFGQLPLALVTWVPMFLSTLLAPYQALRLWARGTWTQATGLGCALLAAHAVVLCALPVHVAVEHQLPPASRCVLVFEQVRFLMKSYSFLREAVPGTLRARRGEGIQAPSFSSYLYFLFCPTLIYRETYPRTPYVRWNYVAKNFAQALGCVLYACFILGRLCVPVFANMSREPFSTRALVLSILHATLPGIFMLLLIFFAFLHCWLNAFAEMLRFGDRMFYRDWWNSTSFSNYYRTWNVVVHDWLYSYVYQDGLRLLGARARGVAMLGVFLVSAVAHEYIFCFVLGFFYPVMLILFLVIGGMLNFMMHDQRTGPAWNVLMWTMLFLGQGIQVSLYCQEWYARRHCPLPQATFWGLVTPRSWSCHT

> <PDB ID(s) of Target Chain>


> <UniProt (SwissProt) Recommended Name of Target Chain>
Sterol O-acyltransferase 2

> <UniProt (SwissProt) Entry Name of Target Chain>
ACAT-2

> <UniProt (SwissProt) Primary ID of Target Chain>
O75908

> <UniProt (SwissProt) Secondary ID(s) of Target Chain>
F5H7W4 I6L9H9 Q4VB99 Q4VBA1 Q96TD4 Q9UNR2

> <UniProt (SwissProt) Alternative ID(s) of Target Chain>


> <UniProt (TrEMBL) Submitted Name of Target Chain>


> <UniProt (TrEMBL) Entry Name of Target Chain>


> <UniProt (TrEMBL) Primary ID of Target Chain>


> <UniProt (TrEMBL) Secondary ID(s) of Target Chain>


> <UniProt (TrEMBL) Alternative ID(s) of Target Chain>


$$$$

  Mrv0541 11241417102D          

 49 54  0  0  0  0            999 V2000
    5.7001  -14.2338    0.0000 C   0  0  0  0  0  0  0  0  0  0  0  0
    5.2918  -13.5213    0.0000 C   0  0  2  0  0  0  0  0  0  0  0  0
    4.8789  -14.2311    0.0000 C   0  0  0  0  0  0  0  0  0  0  0  0
    4.5835  -12.2879    0.0000 C   0  0  0  0  0  0  0  0  0  0  0  0
    4.5835  -13.1129    0.0000 C   0  0  2  0  0  0  0  0  0  0  0  0
    5.2955  -11.8712    0.0000 C   0  0  0  0  0  0  0  0  0  0  0  0
    6.0075  -12.2879    0.0000 C   0  0  1  0  0  0  0  0  0  0  0  0
    6.0087  -13.1129    0.0000 C   0  0  1  0  0  0  0  0  0  0  0  0
    6.7197  -13.5222    0.0000 C   0  0  0  0  0  0  0  0  0  0  0  0
    7.4343  -13.1111    0.0000 C   0  0  1  0  0  0  0  0  0  0  0  0
    6.7176  -11.8721    0.0000 C   0  0  2  0  0  0  0  0  0  0  0  0
    7.4328  -12.2907    0.0000 C   0  0  2  0  0  0  0  0  0  0  0  0
    8.1489  -11.8827    0.0000 O   0  0  0  0  0  0  0  0  0  0  0  0
    6.7184  -11.0458    0.0000 C   0  0  2  0  0  0  0  0  0  0  0  0
    7.4408  -10.6362    0.0000 C   0  0  0  0  0  0  0  0  0  0  0  0
    8.1589  -11.0584    0.0000 C   0  0  0  0  0  0  0  0  0  0  0  0
    8.8795  -10.6499    0.0000 C   0  0  0  0  0  0  0  0  0  0  0  0
    8.8884   -9.8175    0.0000 C   0  0  0  0  0  0  0  0  0  0  0  0
    8.1703   -9.3953    0.0000 O   0  0  0  0  0  0  0  0  0  0  0  0
    7.4433   -9.8055    0.0000 C   0  0  0  0  0  0  0  0  0  0  0  0
    9.6022   -9.4133    0.0000 C   0  0  0  0  0  0  0  0  0  0  0  0
   10.3131   -9.8341    0.0000 C   0  0  0  0  0  0  0  0  0  0  0  0
   11.0309   -9.4289    0.0000 N   0  0  0  0  0  0  0  0  0  0  0  0
   11.0390   -8.6030    0.0000 C   0  0  0  0  0  0  0  0  0  0  0  0
   10.3233   -8.1840    0.0000 C   0  0  0  0  0  0  0  0  0  0  0  0
    9.6084   -8.5916    0.0000 C   0  0  0  0  0  0  0  0  0  0  0  0
    6.7315   -9.3883    0.0000 O   0  0  0  0  0  0  0  0  0  0  0  0
    8.1488  -13.5235    0.0000 O   0  0  0  0  0  0  0  0  0  0  0  0
    8.8633  -13.1109    0.0000 C   0  0  0  0  0  0  0  0  0  0  0  0
    9.5777  -13.5233    0.0000 C   0  0  0  0  0  0  0  0  0  0  0  0
    8.8632  -12.2859    0.0000 O   0  0  0  0  0  0  0  0  0  0  0  0
    3.8695  -13.5264    0.0000 O   0  0  0  0  0  0  0  0  0  0  0  0
    3.1545  -13.1149    0.0000 C   0  0  0  0  0  0  0  0  0  0  0  0
    2.4406  -13.5286    0.0000 C   0  0  0  0  0  0  0  0  0  0  0  0
    3.1533  -12.2900    0.0000 O   0  0  0  0  0  0  0  0  0  0  0  0
    5.2854  -14.9469    0.0000 O   0  0  0  0  0  0  0  0  0  0  0  0
    5.6956  -15.6627    0.0000 C   0  0  0  0  0  0  0  0  0  0  0  0
    5.2808  -16.3759    0.0000 C   0  0  0  0  0  0  0  0  0  0  0  0
    6.5206  -15.6653    0.0000 O   0  0  0  0  0  0  0  0  0  0  0  0
    6.0057  -10.6301    0.0000 O   0  0  0  0  0  0  0  0  0  0  0  0
    6.0002  -11.4628    0.0000 C   0  0  0  0  0  0  0  0  0  0  0  0
    7.4252  -11.4628    0.0000 C   0  0  0  0  0  0  0  0  0  0  0  0
    9.5726  -14.3473    0.0000 C   0  0  0  0  0  0  0  0  0  0  0  0
   10.2864  -14.7596    0.0000 C   0  0  0  0  0  0  0  0  0  0  0  0
   11.0018  -14.3470    0.0000 C   0  0  0  0  0  0  0  0  0  0  0  0
   10.9990  -13.5178    0.0000 C   0  0  0  0  0  0  0  0  0  0  0  0
   10.2847  -13.1092    0.0000 C   0  0  0  0  0  0  0  0  0  0  0  0
   10.2804  -12.2841    0.0000 I   0  0  0  0  0  0  0  0  0  0  0  0
   11.7169  -14.7585    0.0000 Cl  0  0  0  0  0  0  0  0  0  0  0  0
  2  1  1  6  0  0  0
  2  3  1  1  0  0  0
  5  4  1  0  0  0  0
  4  6  1  0  0  0  0
  2  5  1  0  0  0  0
  8  2  1  0  0  0  0
  7  6  1  0  0  0  0
  7  8  1  0  0  0  0
 11  7  1  1  0  0  0
  8  9  1  1  0  0  0
 10  9  1  0  0  0  0
 12 10  1  0  0  0  0
 11 12  1  0  0  0  0
 11 14  1  0  0  0  0
 12 13  1  0  0  0  0
 13 16  1  0  0  0  0
 14 15  1  0  0  0  0
 15 16  2  0  0  0  0
 15 20  1  0  0  0  0
 16 17  1  0  0  0  0
 17 18  2  0  0  0  0
 18 19  1  0  0  0  0
 19 20  1  0  0  0  0
 21 22  2  0  0  0  0
 22 23  1  0  0  0  0
 23 24  2  0  0  0  0
 24 25  1  0  0  0  0
 25 26  2  0  0  0  0
 26 21  1  0  0  0  0
 18 21  1  0  0  0  0
 20 27  2  0  0  0  0
 10 28  1  1  0  0  0
 28 29  1  0  0  0  0
 29 30  1  0  0  0  0
 29 31  2  0  0  0  0
  5 32  1  1  0  0  0
 32 33  1  0  0  0  0
 33 34  1  0  0  0  0
 33 35  2  0  0  0  0
  1 36  1  0  0  0  0
 36 37  1  0  0  0  0
 37 38  1  0  0  0  0
 37 39  2  0  0  0  0
 14 40  1  1  0  0  0
  7 41  1  1  0  0  0
 12 42  1  1  0  0  0
 30 43  2  0  0  0  0
 43 44  1  0  0  0  0
 44 45  2  0  0  0  0
 45 46  1  0  0  0  0
 46 47  2  0  0  0  0
 47 30  1  0  0  0  0
 47 48  1  0  0  0  0
 45 49  1  0  0  0  0
M  END
> <From>
www.bindingDB.org

> <BindingDB Reactant_set_id>
51053260

> <Ligand InChI>
InChI=1S/C36H37ClINO10/c1-18(40)45-17-35(4)26-15-28(48-32(43)22-9-8-21(37)13-23(22)38)36(5)31(34(26,3)11-10-27(35)46-19(2)41)30(42)29-25(49-36)14-24(47-33(29)44)20-7-6-12-39-16-20/h6-9,12-14,16,26-28,30-31,42H,10-11,15,17H2,1-5H3/t26-,27+,28+,30+,31-,34+,35+,36-/m1/s1

> <Ligand InChI Key>
MBDCACVGHDVRJD-HRSZXCBJSA-N

> <BindingDB MonomerID>
50429570

> <BindingDB Ligand Name>
CHEMBL2334219

> <Target Name>
Sterol O-acyltransferase 2

> <Target Source Organism According to Curator or DataSource>


> <Ki (nM)>


> <IC50 (nM)>
 39

> <Kd (nM)>


> <EC50 (nM)>


> <kon (M-1-s-1)>


> <koff (s-1)>


> <pH>


> <Temp (C)>


> <Curation/DataSource>
ChEMBL

> <Article DOI>
10.1016/j.bmcl.2012.12.099

> <BindingDB Entry DOI>
10.7270/Q2P270HW

> <PMID>
23369538

> <PubChem AID>


> <Patent Number>


> <Authors>
Ohtawa, M; Yamazaki, H; Ohte, S; Matsuda, D; Ohshiro, T; Rudel, LL; Omura, S; Tomoda, H; Nagamitsu, T

> <Institution>
Kitasato University

> <Link to Ligand in BindingDB>
http://www.bindingdb.org/bind/chemsearch/marvin/MolStructure.jsp?monomerid=50429570

> <Link to Target in BindingDB>
http://www.bindingdb.org/jsp/dbsearch/PrimarySearch_ki.jsp?energyterm=kJ/mole&tag=pol&polymerid=7773&target=Sterol+O-acyltransferase+2&column=ki&startPg=0&Increment=50&submit=Search

> <Link to Ligand-Target Pair in BindingDB>
http://www.bindingdb.org/jsp/dbsearch/PrimarySearch_ki.jsp?energyterm=kJ/mole&tag=r21&monomerid=50429570&enzyme=Sterol+O-acyltransferase+2&column=ki&startPg=0&Increment=50&submit=Search

> <Ligand HET ID in PDB>


> <PDB ID(s) for Ligand-Target Complex>


> <PubChem CID>
71559664

> <PubChem SID>
164158445

> <ChEBI ID of Ligand>


> <ChEMBL ID of Ligand>
CHEMBL2334219

> <DrugBank ID of Ligand>


> <IUPHAR_GRAC ID of Ligand>


> <KEGG ID of Ligand>


> <ZINC ID of Ligand>
ZINC95592462

> <Number of Protein Chains in Target (>1 implies a multichain complex)>
1

> <BindingDB Target Chain Sequence>
MEPGGARLRLQRTEGLGGERERQPCGDGNTETHRAPDLVQWTRHMEAVKAQLLEQAQGQLRELLDRAMREAIQSYPSQDKPLPPPPPGSLSRTQEPSLGKQKVFIIRKSLLDELMEVQHFRTIYHMFIAGLCVFIISTLAIDFIDEGRLLLEFDLLIFSFGQLPLALVTWVPMFLSTLLAPYQALRLWARGTWTQATGLGCALLAAHAVVLCALPVHVAVEHQLPPASRCVLVFEQVRFLMKSYSFLREAVPGTLRARRGEGIQAPSFSSYLYFLFCPTLIYRETYPRTPYVRWNYVAKNFAQALGCVLYACFILGRLCVPVFANMSREPFSTRALVLSILHATLPGIFMLLLIFFAFLHCWLNAFAEMLRFGDRMFYRDWWNSTSFSNYYRTWNVVVHDWLYSYVYQDGLRLLGARARGVAMLGVFLVSAVAHEYIFCFVLGFFYPVMLILFLVIGGMLNFMMHDQRTGPAWNVLMWTMLFLGQGIQVSLYCQEWYARRHCPLPQATFWGLVTPRSWSCHT

> <PDB ID(s) of Target Chain>


> <UniProt (SwissProt) Recommended Name of Target Chain>
Sterol O-acyltransferase 2

> <UniProt (SwissProt) Entry Name of Target Chain>
ACAT-2

> <UniProt (SwissProt) Primary ID of Target Chain>
O75908

> <UniProt (SwissProt) Secondary ID(s) of Target Chain>
F5H7W4 I6L9H9 Q4VB99 Q4VBA1 Q96TD4 Q9UNR2

> <UniProt (SwissProt) Alternative ID(s) of Target Chain>


> <UniProt (TrEMBL) Submitted Name of Target Chain>


> <UniProt (TrEMBL) Entry Name of Target Chain>


> <UniProt (TrEMBL) Primary ID of Target Chain>


> <UniProt (TrEMBL) Secondary ID(s) of Target Chain>


> <UniProt (TrEMBL) Alternative ID(s) of Target Chain>


$$$$

  Mrv0541 11241417102D          

 50 56  0  0  0  0            999 V2000
    1.6875  -21.3424    0.0000 C   0  0  0  0  0  0  0  0  0  0  0  0
    1.2792  -20.6298    0.0000 C   0  0  2  0  0  0  0  0  0  0  0  0
    0.8663  -21.3397    0.0000 C   0  0  0  0  0  0  0  0  0  0  0  0
    0.5708  -19.3964    0.0000 C   0  0  0  0  0  0  0  0  0  0  0  0
    0.5708  -20.2214    0.0000 C   0  0  2  0  0  0  0  0  0  0  0  0
    1.2829  -18.9797    0.0000 C   0  0  0  0  0  0  0  0  0  0  0  0
    1.9949  -19.3964    0.0000 C   0  0  1  0  0  0  0  0  0  0  0  0
    1.9960  -20.2214    0.0000 C   0  0  1  0  0  0  0  0  0  0  0  0
    2.7070  -20.6308    0.0000 C   0  0  0  0  0  0  0  0  0  0  0  0
    3.4216  -20.2196    0.0000 C   0  0  1  0  0  0  0  0  0  0  0  0
    2.7050  -18.9807    0.0000 C   0  0  2  0  0  0  0  0  0  0  0  0
    3.4202  -19.3992    0.0000 C   0  0  2  0  0  0  0  0  0  0  0  0
    4.1363  -18.9913    0.0000 O   0  0  0  0  0  0  0  0  0  0  0  0
    2.7058  -18.1543    0.0000 C   0  0  2  0  0  0  0  0  0  0  0  0
    3.4282  -17.7448    0.0000 C   0  0  0  0  0  0  0  0  0  0  0  0
    4.1463  -18.1670    0.0000 C   0  0  0  0  0  0  0  0  0  0  0  0
    4.8669  -17.7584    0.0000 C   0  0  0  0  0  0  0  0  0  0  0  0
    4.8758  -16.9260    0.0000 C   0  0  0  0  0  0  0  0  0  0  0  0
    4.1577  -16.5039    0.0000 O   0  0  0  0  0  0  0  0  0  0  0  0
    3.4307  -16.9140    0.0000 C   0  0  0  0  0  0  0  0  0  0  0  0
    5.5896  -16.5218    0.0000 C   0  0  0  0  0  0  0  0  0  0  0  0
    6.3005  -16.9427    0.0000 C   0  0  0  0  0  0  0  0  0  0  0  0
    7.0182  -16.5374    0.0000 N   0  0  0  0  0  0  0  0  0  0  0  0
    7.0264  -15.7116    0.0000 C   0  0  0  0  0  0  0  0  0  0  0  0
    6.3107  -15.2926    0.0000 C   0  0  0  0  0  0  0  0  0  0  0  0
    5.5958  -15.7002    0.0000 C   0  0  0  0  0  0  0  0  0  0  0  0
    2.7189  -16.4969    0.0000 O   0  0  0  0  0  0  0  0  0  0  0  0
    4.1362  -20.6320    0.0000 O   0  0  0  0  0  0  0  0  0  0  0  0
    4.8507  -20.2194    0.0000 C   0  0  0  0  0  0  0  0  0  0  0  0
    5.5651  -20.6319    0.0000 C   0  0  0  0  0  0  0  0  0  0  0  0
    4.8505  -19.3945    0.0000 O   0  0  0  0  0  0  0  0  0  0  0  0
   -0.1486  -20.6350    0.0000 O   0  0  0  0  0  0  0  0  0  0  0  0
   -0.8586  -20.2235    0.0000 C   0  0  0  0  0  0  0  0  0  0  0  0
   -1.5781  -20.6371    0.0000 C   0  0  0  0  0  0  0  0  0  0  0  0
   -0.8657  -19.3985    0.0000 O   0  0  0  0  0  0  0  0  0  0  0  0
    1.2728  -22.0555    0.0000 O   0  0  0  0  0  0  0  0  0  0  0  0
    1.6830  -22.7713    0.0000 C   0  0  0  0  0  0  0  0  0  0  0  0
    1.2682  -23.4845    0.0000 C   0  0  0  0  0  0  0  0  0  0  0  0
    2.5080  -22.7739    0.0000 O   0  0  0  0  0  0  0  0  0  0  0  0
    1.9931  -17.7386    0.0000 O   0  0  0  0  0  0  0  0  0  0  0  0
    1.9876  -18.5714    0.0000 C   0  0  0  0  0  0  0  0  0  0  0  0
    3.4126  -18.5714    0.0000 C   0  0  0  0  0  0  0  0  0  0  0  0
    5.6535  -21.4494    0.0000 C   0  0  0  0  0  0  0  0  0  0  0  0
    6.3207  -20.2932    0.0000 S   0  0  0  0  0  0  0  0  0  0  0  0
    6.8730  -20.9062    0.0000 C   0  0  0  0  0  0  0  0  0  0  0  0
    6.4607  -21.6196    0.0000 C   0  0  0  0  0  0  0  0  0  0  0  0
    6.8724  -22.3312    0.0000 C   0  0  0  0  0  0  0  0  0  0  0  0
    7.6962  -22.3305    0.0000 C   0  0  0  0  0  0  0  0  0  0  0  0
    8.1065  -21.6124    0.0000 C   0  0  0  0  0  0  0  0  0  0  0  0
    7.6924  -20.9038    0.0000 C   0  0  0  0  0  0  0  0  0  0  0  0
  2  1  1  6  0  0  0
  2  3  1  1  0  0  0
  5  4  1  0  0  0  0
  4  6  1  0  0  0  0
  2  5  1  0  0  0  0
  8  2  1  0  0  0  0
  7  6  1  0  0  0  0
  7  8  1  0  0  0  0
 11  7  1  1  0  0  0
  8  9  1  1  0  0  0
 10  9  1  0  0  0  0
 12 10  1  0  0  0  0
 11 12  1  0  0  0  0
 11 14  1  0  0  0  0
 12 13  1  0  0  0  0
 13 16  1  0  0  0  0
 14 15  1  0  0  0  0
 15 16  2  0  0  0  0
 15 20  1  0  0  0  0
 16 17  1  0  0  0  0
 17 18  2  0  0  0  0
 18 19  1  0  0  0  0
 19 20  1  0  0  0  0
 21 22  2  0  0  0  0
 22 23  1  0  0  0  0
 23 24  2  0  0  0  0
 24 25  1  0  0  0  0
 25 26  2  0  0  0  0
 26 21  1  0  0  0  0
 18 21  1  0  0  0  0
 20 27  2  0  0  0  0
 10 28  1  1  0  0  0
 28 29  1  0  0  0  0
 29 30  1  0  0  0  0
 29 31  2  0  0  0  0
  5 32  1  1  0  0  0
 32 33  1  0  0  0  0
 33 34  1  0  0  0  0
 33 35  2  0  0  0  0
  1 36  1  0  0  0  0
 36 37  1  0  0  0  0
 37 38  1  0  0  0  0
 37 39  2  0  0  0  0
 14 40  1  1  0  0  0
  7 41  1  1  0  0  0
 12 42  1  1  0  0  0
 30 43  2  0  0  0  0
 43 46  1  0  0  0  0
 45 44  1  0  0  0  0
 44 30  1  0  0  0  0
 45 46  1  0  0  0  0
 46 47  2  0  0  0  0
 47 48  1  0  0  0  0
 48 49  2  0  0  0  0
 49 50  1  0  0  0  0
 50 45  2  0  0  0  0
M  END
> <From>
www.bindingDB.org

> <BindingDB Reactant_set_id>
51053297

> <Ligand InChI>
InChI=1S/C38H39NO10S/c1-20(40)45-19-37(4)28-17-30(48-34(43)27-15-22-9-6-7-11-26(22)50-27)38(5)33(36(28,3)13-12-29(37)46-21(2)41)32(42)31-25(49-38)16-24(47-35(31)44)23-10-8-14-39-18-23/h6-11,14-16,18,28-30,32-33,42H,12-13,17,19H2,1-5H3/t28-,29+,30+,32+,33-,36+,37+,38-/m1/s1

> <Ligand InChI Key>
ORVTZUVGBLXPOB-DYBHYMMPSA-N

> <BindingDB MonomerID>
50429606

> <BindingDB Ligand Name>
CHEMBL2334537

> <Target Name>
Sterol O-acyltransferase 2

> <Target Source Organism According to Curator or DataSource>


> <Ki (nM)>


> <IC50 (nM)>
 40

> <Kd (nM)>


> <EC50 (nM)>


> <kon (M-1-s-1)>


> <koff (s-1)>


> <pH>


> <Temp (C)>


> <Curation/DataSource>
ChEMBL

> <Article DOI>
10.1016/j.bmcl.2012.12.099

> <BindingDB Entry DOI>
10.7270/Q2P270HW

> <PMID>
23369538

> <PubChem AID>


> <Patent Number>


> <Authors>
Ohtawa, M; Yamazaki, H; Ohte, S; Matsuda, D; Ohshiro, T; Rudel, LL; Omura, S; Tomoda, H; Nagamitsu, T

> <Institution>
Kitasato University

> <Link to Ligand in BindingDB>
http://www.bindingdb.org/bind/chemsearch/marvin/MolStructure.jsp?monomerid=50429606

> <Link to Target in BindingDB>
http://www.bindingdb.org/jsp/dbsearch/PrimarySearch_ki.jsp?energyterm=kJ/mole&tag=pol&polymerid=7773&target=Sterol+O-acyltransferase+2&column=ki&startPg=0&Increment=50&submit=Search

> <Link to Ligand-Target Pair in BindingDB>
http://www.bindingdb.org/jsp/dbsearch/PrimarySearch_ki.jsp?energyterm=kJ/mole&tag=r21&monomerid=50429606&enzyme=Sterol+O-acyltransferase+2&column=ki&startPg=0&Increment=50&submit=Search

> <Ligand HET ID in PDB>


> <PDB ID(s) for Ligand-Target Complex>


> <PubChem CID>
71560675

> <PubChem SID>
164158481

> <ChEBI ID of Ligand>


> <ChEMBL ID of Ligand>
CHEMBL2334537

> <DrugBank ID of Ligand>


> <IUPHAR_GRAC ID of Ligand>


> <KEGG ID of Ligand>


> <ZINC ID of Ligand>
ZINC95591890

> <Number of Protein Chains in Target (>1 implies a multichain complex)>
1

> <BindingDB Target Chain Sequence>
MEPGGARLRLQRTEGLGGERERQPCGDGNTETHRAPDLVQWTRHMEAVKAQLLEQAQGQLRELLDRAMREAIQSYPSQDKPLPPPPPGSLSRTQEPSLGKQKVFIIRKSLLDELMEVQHFRTIYHMFIAGLCVFIISTLAIDFIDEGRLLLEFDLLIFSFGQLPLALVTWVPMFLSTLLAPYQALRLWARGTWTQATGLGCALLAAHAVVLCALPVHVAVEHQLPPASRCVLVFEQVRFLMKSYSFLREAVPGTLRARRGEGIQAPSFSSYLYFLFCPTLIYRETYPRTPYVRWNYVAKNFAQALGCVLYACFILGRLCVPVFANMSREPFSTRALVLSILHATLPGIFMLLLIFFAFLHCWLNAFAEMLRFGDRMFYRDWWNSTSFSNYYRTWNVVVHDWLYSYVYQDGLRLLGARARGVAMLGVFLVSAVAHEYIFCFVLGFFYPVMLILFLVIGGMLNFMMHDQRTGPAWNVLMWTMLFLGQGIQVSLYCQEWYARRHCPLPQATFWGLVTPRSWSCHT

> <PDB ID(s) of Target Chain>


> <UniProt (SwissProt) Recommended Name of Target Chain>
Sterol O-acyltransferase 2

> <UniProt (SwissProt) Entry Name of Target Chain>
ACAT-2

> <UniProt (SwissProt) Primary ID of Target Chain>
O75908

> <UniProt (SwissProt) Secondary ID(s) of Target Chain>
F5H7W4 I6L9H9 Q4VB99 Q4VBA1 Q96TD4 Q9UNR2

> <UniProt (SwissProt) Alternative ID(s) of Target Chain>


> <UniProt (TrEMBL) Submitted Name of Target Chain>


> <UniProt (TrEMBL) Entry Name of Target Chain>


> <UniProt (TrEMBL) Primary ID of Target Chain>


> <UniProt (TrEMBL) Secondary ID(s) of Target Chain>


> <UniProt (TrEMBL) Alternative ID(s) of Target Chain>


$$$$

  Mrv0541 11241417312D          

 51 56  0  0  0  0            999 V2000
    6.0624   -5.8458    0.0000 C   0  0  0  0  0  0  0  0  0  0  0  0
    5.6541   -5.1332    0.0000 C   0  0  1  0  0  0  0  0  0  0  0  0
    5.2412   -5.8431    0.0000 C   0  0  0  0  0  0  0  0  0  0  0  0
    4.9458   -3.9000    0.0000 C   0  0  0  0  0  0  0  0  0  0  0  0
    4.9458   -4.7250    0.0000 C   0  0  2  0  0  0  0  0  0  0  0  0
    5.6578   -3.4833    0.0000 C   0  0  0  0  0  0  0  0  0  0  0  0
    6.3698   -3.9000    0.0000 C   0  0  1  0  0  0  0  0  0  0  0  0
    6.3708   -4.7250    0.0000 C   0  0  1  0  0  0  0  0  0  0  0  0
    7.0819   -5.1342    0.0000 C   0  0  0  0  0  0  0  0  0  0  0  0
    7.7964   -4.7232    0.0000 C   0  0  1  0  0  0  0  0  0  0  0  0
    7.0798   -3.4842    0.0000 C   0  0  2  0  0  0  0  0  0  0  0  0
    7.7973   -3.8988    0.0000 C   0  0  2  0  0  0  0  0  0  0  0  0
    8.5111   -3.4870    0.0000 O   0  0  0  0  0  0  0  0  0  0  0  0
    7.0760   -2.6579    0.0000 C   0  0  2  0  0  0  0  0  0  0  0  0
    7.7961   -2.2444    0.0000 C   0  0  0  0  0  0  0  0  0  0  0  0
    8.5186   -2.6580    0.0000 C   0  0  0  0  0  0  0  0  0  0  0  0
    9.2342   -2.2414    0.0000 C   0  0  0  0  0  0  0  0  0  0  0  0
    9.2334   -1.4094    0.0000 C   0  0  0  0  0  0  0  0  0  0  0  0
    8.5109   -0.9957    0.0000 O   0  0  0  0  0  0  0  0  0  0  0  0
    7.7890   -1.4141    0.0000 C   0  0  0  0  0  0  0  0  0  0  0  0
    9.9460   -0.9978    0.0000 C   0  0  0  0  0  0  0  0  0  0  0  0
   10.6618   -1.4103    0.0000 C   0  0  0  0  0  0  0  0  0  0  0  0
   11.3748   -0.9969    0.0000 N   0  0  0  0  0  0  0  0  0  0  0  0
   11.3733   -0.1710    0.0000 C   0  0  0  0  0  0  0  0  0  0  0  0
   10.6529    0.2397    0.0000 C   0  0  0  0  0  0  0  0  0  0  0  0
    9.9428   -0.1762    0.0000 C   0  0  0  0  0  0  0  0  0  0  0  0
    8.5104   -5.1366    0.0000 O   0  0  0  0  0  0  0  0  0  0  0  0
    9.2253   -4.7250    0.0000 C   0  0  0  0  0  0  0  0  0  0  0  0
    9.9393   -5.1384    0.0000 C   0  0  0  0  0  0  0  0  0  0  0  0
    9.2264   -3.9000    0.0000 O   0  0  0  0  0  0  0  0  0  0  0  0
    9.9335   -5.9635    0.0000 C   0  0  0  0  0  0  0  0  0  0  0  0
   10.6467   -6.3768    0.0000 C   0  0  0  0  0  0  0  0  0  0  0  0
   11.3626   -5.9652    0.0000 C   0  0  0  0  0  0  0  0  0  0  0  0
   11.3610   -5.1360    0.0000 C   0  0  0  0  0  0  0  0  0  0  0  0
   10.6474   -4.7264    0.0000 C   0  0  0  0  0  0  0  0  0  0  0  0
   12.0765   -6.3739    0.0000 C   0  0  0  0  0  0  0  0  0  0  0  0
   12.7909   -6.7863    0.0000 N   0  0  0  0  0  0  0  0  0  0  0  0
    7.0725   -1.0052    0.0000 O   0  0  0  0  0  0  0  0  0  0  0  0
    6.3611   -2.2462    0.0000 O   0  0  0  0  0  0  0  0  0  0  0  0
    6.3624   -3.0750    0.0000 C   0  0  0  0  0  0  0  0  0  0  0  0
    7.7916   -3.0708    0.0000 C   0  0  0  0  0  0  0  0  0  0  0  0
    4.2319   -5.1385    0.0000 O   0  0  0  0  0  0  0  0  0  0  0  0
    3.5168   -4.7270    0.0000 C   0  0  0  0  0  0  0  0  0  0  0  0
    2.8053   -5.1406    0.0000 C   0  0  0  0  0  0  0  0  0  0  0  0
    3.5156   -3.9020    0.0000 O   0  0  0  0  0  0  0  0  0  0  0  0
    4.4163   -5.8405    0.0000 O   0  0  0  0  0  0  0  0  0  0  0  0
    4.0014   -6.5537    0.0000 C   0  0  0  0  0  0  0  0  0  0  0  0
    3.1765   -6.5510    0.0000 O   0  0  0  0  0  0  0  0  0  0  0  0
    4.4117   -7.2694    0.0000 C   0  0  0  0  0  0  0  0  0  0  0  0
    3.9969   -7.9826    0.0000 C   0  0  0  0  0  0  0  0  0  0  0  0
    5.2367   -7.2720    0.0000 C   0  0  0  0  0  0  0  0  0  0  0  0
  2  1  1  1  0  0  0
  2  3  1  6  0  0  0
  5  4  1  0  0  0  0
  4  6  1  0  0  0  0
  2  5  1  0  0  0  0
  8  2  1  0  0  0  0
  7  6  1  0  0  0  0
  7  8  1  0  0  0  0
 11  7  1  1  0  0  0
  8  9  1  1  0  0  0
 10  9  1  0  0  0  0
 12 10  1  0  0  0  0
 11 12  1  0  0  0  0
 11 14  1  0  0  0  0
 12 13  1  0  0  0  0
 13 16  1  0  0  0  0
 14 15  1  0  0  0  0
 15 16  2  0  0  0  0
 15 20  1  0  0  0  0
 16 17  1  0  0  0  0
 17 18  2  0  0  0  0
 18 19  1  0  0  0  0
 19 20  1  0  0  0  0
 21 22  2  0  0  0  0
 22 23  1  0  0  0  0
 23 24  2  0  0  0  0
 24 25  1  0  0  0  0
 25 26  2  0  0  0  0
 26 21  1  0  0  0  0
 18 21  1  0  0  0  0
 10 27  1  1  0  0  0
 27 28  1  0  0  0  0
 28 29  1  0  0  0  0
 28 30  2  0  0  0  0
 29 31  2  0  0  0  0
 31 32  1  0  0  0  0
 32 33  2  0  0  0  0
 33 34  1  0  0  0  0
 34 35  2  0  0  0  0
 35 29  1  0  0  0  0
 36 37  3  0  0  0  0
 33 36  1  0  0  0  0
 20 38  2  0  0  0  0
 14 39  1  1  0  0  0
  7 40  1  1  0  0  0
 12 41  1  1  0  0  0
  5 42  1  1  0  0  0
 42 43  1  0  0  0  0
 43 44  1  0  0  0  0
 43 45  2  0  0  0  0
  3 46  1  0  0  0  0
 46 47  1  0  0  0  0
 47 48  2  0  0  0  0
 47 49  1  0  0  0  0
 49 50  1  0  0  0  0
 49 51  1  0  0  0  0
M  END
> <From>
www.bindingDB.org

> <BindingDB Reactant_set_id>
51061802

> <Ligand InChI>
InChI=1S/C39H42N2O10/c1-21(2)34(44)47-20-38(5)28-17-30(50-35(45)24-11-9-23(18-40)10-12-24)39(6)33(37(28,4)14-13-29(38)48-22(3)42)32(43)31-27(51-39)16-26(49-36(31)46)25-8-7-15-41-19-25/h7-12,15-16,19,21,28-30,32-33,43H,13-14,17,20H2,1-6H3/t28-,29+,30+,32+,33-,37+,38+,39-/m1/s1

> <Ligand InChI Key>
KCVZIKOQIUERQO-UQGXDOBHSA-N

> <BindingDB MonomerID>
50433209

> <BindingDB Ligand Name>
CHEMBL2375604

> <Target Name>
Sterol O-acyltransferase 2

> <Target Source Organism According to Curator or DataSource>


> <Ki (nM)>


> <IC50 (nM)>
 42

> <Kd (nM)>


> <EC50 (nM)>


> <kon (M-1-s-1)>


> <koff (s-1)>


> <pH>


> <Temp (C)>


> <Curation/DataSource>
ChEMBL

> <Article DOI>
10.1016/j.bmcl.2013.02.088

> <BindingDB Entry DOI>
10.7270/Q20866P3

> <PMID>
23535327

> <PubChem AID>


> <Patent Number>


> <Authors>
Ohtawa, M; Yamazaki, H; Matsuda, D; Ohshiro, T; Rudel, LL; Omura, S; Tomoda, H; Nagamitsu, T

> <Institution>
Kitasato University

> <Link to Ligand in BindingDB>
http://www.bindingdb.org/bind/chemsearch/marvin/MolStructure.jsp?monomerid=50433209

> <Link to Target in BindingDB>
http://www.bindingdb.org/jsp/dbsearch/PrimarySearch_ki.jsp?energyterm=kJ/mole&tag=pol&polymerid=7773&target=Sterol+O-acyltransferase+2&column=ki&startPg=0&Increment=50&submit=Search

> <Link to Ligand-Target Pair in BindingDB>
http://www.bindingdb.org/jsp/dbsearch/PrimarySearch_ki.jsp?energyterm=kJ/mole&tag=r21&monomerid=50433209&enzyme=Sterol+O-acyltransferase+2&column=ki&startPg=0&Increment=50&submit=Search

> <Ligand HET ID in PDB>


> <PDB ID(s) for Ligand-Target Complex>


> <PubChem CID>
71602816

> <PubChem SID>
175445526

> <ChEBI ID of Ligand>


> <ChEMBL ID of Ligand>
CHEMBL2375604

> <DrugBank ID of Ligand>


> <IUPHAR_GRAC ID of Ligand>


> <KEGG ID of Ligand>


> <ZINC ID of Ligand>
ZINC96258628

> <Number of Protein Chains in Target (>1 implies a multichain complex)>
1

> <BindingDB Target Chain Sequence>
MEPGGARLRLQRTEGLGGERERQPCGDGNTETHRAPDLVQWTRHMEAVKAQLLEQAQGQLRELLDRAMREAIQSYPSQDKPLPPPPPGSLSRTQEPSLGKQKVFIIRKSLLDELMEVQHFRTIYHMFIAGLCVFIISTLAIDFIDEGRLLLEFDLLIFSFGQLPLALVTWVPMFLSTLLAPYQALRLWARGTWTQATGLGCALLAAHAVVLCALPVHVAVEHQLPPASRCVLVFEQVRFLMKSYSFLREAVPGTLRARRGEGIQAPSFSSYLYFLFCPTLIYRETYPRTPYVRWNYVAKNFAQALGCVLYACFILGRLCVPVFANMSREPFSTRALVLSILHATLPGIFMLLLIFFAFLHCWLNAFAEMLRFGDRMFYRDWWNSTSFSNYYRTWNVVVHDWLYSYVYQDGLRLLGARARGVAMLGVFLVSAVAHEYIFCFVLGFFYPVMLILFLVIGGMLNFMMHDQRTGPAWNVLMWTMLFLGQGIQVSLYCQEWYARRHCPLPQATFWGLVTPRSWSCHT

> <PDB ID(s) of Target Chain>


> <UniProt (SwissProt) Recommended Name of Target Chain>
Sterol O-acyltransferase 2

> <UniProt (SwissProt) Entry Name of Target Chain>
ACAT-2

> <UniProt (SwissProt) Primary ID of Target Chain>
O75908

> <UniProt (SwissProt) Secondary ID(s) of Target Chain>
F5H7W4 I6L9H9 Q4VB99 Q4VBA1 Q96TD4 Q9UNR2

> <UniProt (SwissProt) Alternative ID(s) of Target Chain>


> <UniProt (TrEMBL) Submitted Name of Target Chain>


> <UniProt (TrEMBL) Entry Name of Target Chain>


> <UniProt (TrEMBL) Primary ID of Target Chain>


> <UniProt (TrEMBL) Secondary ID(s) of Target Chain>


> <UniProt (TrEMBL) Alternative ID(s) of Target Chain>


$$$$

  Mrv0541 11241418062D          

 50 57  0  0  0  0            999 V2000
   17.9875  -16.9115    0.0000 C   0  0  0  0  0  0  0  0  0  0  0  0
   18.7002  -16.4945    0.0000 C   0  0  0  0  0  0  0  0  0  0  0  0
   19.4129  -16.9115    0.0000 C   0  0  1  0  0  0  0  0  0  0  0  0
   19.4139  -17.7373    0.0000 C   0  0  1  0  0  0  0  0  0  0  0  0
   20.1257  -18.1469    0.0000 C   0  0  0  0  0  0  0  0  0  0  0  0
   20.8408  -17.7354    0.0000 C   0  0  1  0  0  0  0  0  0  0  0  0
   20.1235  -16.4955    0.0000 C   0  0  2  0  0  0  0  0  0  0  0  0
   20.8354  -16.9120    0.0000 C   0  0  2  0  0  0  0  0  0  0  0  0
   21.5482  -16.5060    0.0000 O   0  0  0  0  0  0  0  0  0  0  0  0
   20.1244  -15.6728    0.0000 C   0  0  2  0  0  0  0  0  0  0  0  0
   18.7002  -18.1460    0.0000 C   0  0  1  0  0  0  0  0  0  0  0  0
   17.9875  -17.7373    0.0000 C   0  0  1  0  0  0  0  0  0  0  0  0
   17.2811  -18.1478    0.0000 O   0  0  0  0  0  0  0  0  0  0  0  0
   17.2812  -18.9688    0.0000 C   0  0  1  0  0  0  0  0  0  0  0  0
   17.9939  -19.3775    0.0000 O   0  0  0  0  0  0  0  0  0  0  0  0
   18.7065  -18.9652    0.0000 C   0  0  0  0  0  0  0  0  0  0  0  0
   20.8433  -15.2652    0.0000 C   0  0  0  0  0  0  0  0  0  0  0  0
   21.5537  -15.6832    0.0000 C   0  0  0  0  0  0  0  0  0  0  0  0
   22.2670  -15.2793    0.0000 C   0  0  0  0  0  0  0  0  0  0  0  0
   22.2762  -14.4557    0.0000 C   0  0  0  0  0  0  0  0  0  0  0  0
   21.5658  -14.0377    0.0000 O   0  0  0  0  0  0  0  0  0  0  0  0
   20.8462  -14.4432    0.0000 C   0  0  0  0  0  0  0  0  0  0  0  0
   20.1340  -14.0253    0.0000 O   0  0  0  0  0  0  0  0  0  0  0  0
   19.4110  -15.2568    0.0000 O   0  0  0  0  0  0  0  0  0  0  0  0
   20.8277  -16.0857    0.0000 C   0  0  0  0  0  0  0  0  0  0  0  0
   21.5570  -18.1465    0.0000 O   0  0  0  0  0  0  0  0  0  0  0  0
   19.4055  -16.0857    0.0000 C   0  0  0  0  0  0  0  0  0  0  0  0
   18.6923  -17.3202    0.0000 C   0  0  0  0  0  0  0  0  0  0  0  0
   22.2711  -17.7318    0.0000 C   0  0  0  0  0  0  0  0  0  0  0  0
   22.9873  -18.1429    0.0000 C   0  0  0  0  0  0  0  0  0  0  0  0
   22.2690  -16.9060    0.0000 O   0  0  0  0  0  0  0  0  0  0  0  0
   22.9873  -18.9687    0.0000 C   0  0  0  0  0  0  0  0  0  0  0  0
   23.7026  -19.3796    0.0000 C   0  0  0  0  0  0  0  0  0  0  0  0
   24.4176  -18.9649    0.0000 C   0  0  0  0  0  0  0  0  0  0  0  0
   24.4129  -18.1349    0.0000 C   0  0  0  0  0  0  0  0  0  0  0  0
   23.6970  -17.7277    0.0000 C   0  0  0  0  0  0  0  0  0  0  0  0
   22.9957  -14.0505    0.0000 C   0  0  0  0  0  0  0  0  0  0  0  0
   23.7069  -14.4721    0.0000 C   0  0  0  0  0  0  0  0  0  0  0  0
   24.4256  -14.0669    0.0000 N   0  0  0  0  0  0  0  0  0  0  0  0
   24.4341  -13.2403    0.0000 C   0  0  0  0  0  0  0  0  0  0  0  0
   23.7180  -12.8205    0.0000 C   0  0  0  0  0  0  0  0  0  0  0  0
   23.0023  -13.2281    0.0000 C   0  0  0  0  0  0  0  0  0  0  0  0
   16.5667  -19.3828    0.0000 C   0  0  0  0  0  0  0  0  0  0  0  0
   15.8541  -18.9679    0.0000 C   0  0  0  0  0  0  0  0  0  0  0  0
   15.1401  -19.3812    0.0000 C   0  0  0  0  0  0  0  0  0  0  0  0
   15.1409  -20.2079    0.0000 C   0  0  0  0  0  0  0  0  0  0  0  0
   15.8617  -20.6195    0.0000 C   0  0  0  0  0  0  0  0  0  0  0  0
   16.5728  -20.2039    0.0000 C   0  0  0  0  0  0  0  0  0  0  0  0
   15.8658  -21.4453    0.0000 C   0  0  0  0  0  0  0  0  0  0  0  0
   25.1344  -19.3751    0.0000 F   0  0  0  0  0  0  0  0  0  0  0  0
 12  1  1  0  0  0  0
  1  2  1  0  0  0  0
  4 11  1  0  0  0  0
  3  2  1  0  0  0  0
  3  4  1  0  0  0  0
  7  3  1  1  0  0  0
  4  5  1  1  0  0  0
  6  5  1  0  0  0  0
  8  6  1  0  0  0  0
  7  8  1  0  0  0  0
  7 10  1  0  0  0  0
  8  9  1  0  0  0  0
  9 18  1  0  0  0  0
 10 17  1  0  0  0  0
 11 12  1  0  0  0  0
 11 16  1  0  0  0  0
 12 13  1  1  0  0  0
 14 13  1  0  0  0  0
 14 15  1  0  0  0  0
 15 16  1  0  0  0  0
 17 18  2  0  0  0  0
 17 22  1  0  0  0  0
 18 19  1  0  0  0  0
 19 20  2  0  0  0  0
 20 21  1  0  0  0  0
 21 22  1  0  0  0  0
 22 23  2  0  0  0  0
 10 24  1  1  0  0  0
  8 25  1  1  0  0  0
  6 26  1  1  0  0  0
  3 27  1  1  0  0  0
 11 28  1  1  0  0  0
 26 29  1  0  0  0  0
 29 30  1  0  0  0  0
 29 31  2  0  0  0  0
 30 32  2  0  0  0  0
 32 33  1  0  0  0  0
 33 34  2  0  0  0  0
 34 35  1  0  0  0  0
 35 36  2  0  0  0  0
 36 30  1  0  0  0  0
 37 38  2  0  0  0  0
 38 39  1  0  0  0  0
 39 40  2  0  0  0  0
 40 41  1  0  0  0  0
 41 42  2  0  0  0  0
 42 37  1  0  0  0  0
 20 37  1  0  0  0  0
 14 43  1  1  0  0  0
 43 44  2  0  0  0  0
 44 45  1  0  0  0  0
 45 46  2  0  0  0  0
 46 47  1  0  0  0  0
 47 48  2  0  0  0  0
 48 43  1  0  0  0  0
 47 49  1  0  0  0  0
 34 50  1  0  0  0  0
M  END
> <From>
www.bindingDB.org

> <BindingDB Reactant_set_id>
51068467

> <Ligand InChI>
InChI=1S/C40H40FNO8/c1-22-7-5-8-24(17-22)37-46-21-39(3)29-19-31(48-35(44)23-10-12-26(41)13-11-23)40(4)34(38(29,2)15-14-30(39)49-37)33(43)32-28(50-40)18-27(47-36(32)45)25-9-6-16-42-20-25/h5-13,16-18,20,29-31,33-34,37,43H,14-15,19,21H2,1-4H3/t29-,30+,31+,33+,34-,37-,38+,39+,40-/m1/s1

> <Ligand InChI Key>
DYZJSEXRMHVHQP-WVGFPPCDSA-N

> <BindingDB MonomerID>
50436352

> <BindingDB Ligand Name>
CHEMBL2398807

> <Target Name>
Sterol O-acyltransferase 2

> <Target Source Organism According to Curator or DataSource>


> <Ki (nM)>


> <IC50 (nM)>
 48

> <Kd (nM)>


> <EC50 (nM)>


> <kon (M-1-s-1)>


> <koff (s-1)>


> <pH>


> <Temp (C)>


> <Curation/DataSource>
ChEMBL

> <Article DOI>
10.1016/j.bmcl.2013.04.075

> <BindingDB Entry DOI>
10.7270/Q2WD41Z9

> <PMID>
23711919

> <PubChem AID>


> <Patent Number>


> <Authors>
Ohtawa, M; Yamazaki, H; Ohte, S; Matsuda, D; Ohshiro, T; Rudel, LL; Omura, S; Tomoda, H; Nagamitsu, T

> <Institution>
Kitasato University

> <Link to Ligand in BindingDB>
http://www.bindingdb.org/bind/chemsearch/marvin/MolStructure.jsp?monomerid=50436352

> <Link to Target in BindingDB>
http://www.bindingdb.org/jsp/dbsearch/PrimarySearch_ki.jsp?energyterm=kJ/mole&tag=pol&polymerid=7773&target=Sterol+O-acyltransferase+2&column=ki&startPg=0&Increment=50&submit=Search

> <Link to Ligand-Target Pair in BindingDB>
http://www.bindingdb.org/jsp/dbsearch/PrimarySearch_ki.jsp?energyterm=kJ/mole&tag=r21&monomerid=50436352&enzyme=Sterol+O-acyltransferase+2&column=ki&startPg=0&Increment=50&submit=Search

> <Ligand HET ID in PDB>


> <PDB ID(s) for Ligand-Target Complex>


> <PubChem CID>
71682814

> <PubChem SID>
175448669

> <ChEBI ID of Ligand>


> <ChEMBL ID of Ligand>
CHEMBL2398807

> <DrugBank ID of Ligand>


> <IUPHAR_GRAC ID of Ligand>


> <KEGG ID of Ligand>


> <ZINC ID of Ligand>
ZINC96272263

> <Number of Protein Chains in Target (>1 implies a multichain complex)>
1

> <BindingDB Target Chain Sequence>
MEPGGARLRLQRTEGLGGERERQPCGDGNTETHRAPDLVQWTRHMEAVKAQLLEQAQGQLRELLDRAMREAIQSYPSQDKPLPPPPPGSLSRTQEPSLGKQKVFIIRKSLLDELMEVQHFRTIYHMFIAGLCVFIISTLAIDFIDEGRLLLEFDLLIFSFGQLPLALVTWVPMFLSTLLAPYQALRLWARGTWTQATGLGCALLAAHAVVLCALPVHVAVEHQLPPASRCVLVFEQVRFLMKSYSFLREAVPGTLRARRGEGIQAPSFSSYLYFLFCPTLIYRETYPRTPYVRWNYVAKNFAQALGCVLYACFILGRLCVPVFANMSREPFSTRALVLSILHATLPGIFMLLLIFFAFLHCWLNAFAEMLRFGDRMFYRDWWNSTSFSNYYRTWNVVVHDWLYSYVYQDGLRLLGARARGVAMLGVFLVSAVAHEYIFCFVLGFFYPVMLILFLVIGGMLNFMMHDQRTGPAWNVLMWTMLFLGQGIQVSLYCQEWYARRHCPLPQATFWGLVTPRSWSCHT

> <PDB ID(s) of Target Chain>


> <UniProt (SwissProt) Recommended Name of Target Chain>
Sterol O-acyltransferase 2

> <UniProt (SwissProt) Entry Name of Target Chain>
ACAT-2

> <UniProt (SwissProt) Primary ID of Target Chain>
O75908

> <UniProt (SwissProt) Secondary ID(s) of Target Chain>
F5H7W4 I6L9H9 Q4VB99 Q4VBA1 Q96TD4 Q9UNR2

> <UniProt (SwissProt) Alternative ID(s) of Target Chain>


> <UniProt (TrEMBL) Submitted Name of Target Chain>


> <UniProt (TrEMBL) Entry Name of Target Chain>


> <UniProt (TrEMBL) Primary ID of Target Chain>


> <UniProt (TrEMBL) Secondary ID(s) of Target Chain>


> <UniProt (TrEMBL) Alternative ID(s) of Target Chain>


$$$$

  Mrv0541 11241418062D          

 49 56  0  0  0  0            999 V2000
   10.1757  -19.7635    0.0000 C   0  0  0  0  0  0  0  0  0  0  0  0
   10.8884  -19.3464    0.0000 C   0  0  0  0  0  0  0  0  0  0  0  0
   11.6011  -19.7635    0.0000 C   0  0  1  0  0  0  0  0  0  0  0  0
   11.6021  -20.5892    0.0000 C   0  0  1  0  0  0  0  0  0  0  0  0
   12.3139  -20.9989    0.0000 C   0  0  0  0  0  0  0  0  0  0  0  0
   13.0290  -20.5874    0.0000 C   0  0  1  0  0  0  0  0  0  0  0  0
   12.3117  -19.3475    0.0000 C   0  0  2  0  0  0  0  0  0  0  0  0
   13.0236  -19.7640    0.0000 C   0  0  2  0  0  0  0  0  0  0  0  0
   13.7364  -19.3580    0.0000 O   0  0  0  0  0  0  0  0  0  0  0  0
   12.3125  -18.5248    0.0000 C   0  0  2  0  0  0  0  0  0  0  0  0
   10.8884  -20.9979    0.0000 C   0  0  1  0  0  0  0  0  0  0  0  0
   10.1757  -20.5892    0.0000 C   0  0  1  0  0  0  0  0  0  0  0  0
    9.4694  -20.9998    0.0000 O   0  0  0  0  0  0  0  0  0  0  0  0
    9.4695  -21.8207    0.0000 C   0  0  1  0  0  0  0  0  0  0  0  0
   10.1822  -22.2294    0.0000 O   0  0  0  0  0  0  0  0  0  0  0  0
   10.8948  -21.8172    0.0000 C   0  0  0  0  0  0  0  0  0  0  0  0
   13.0315  -18.1172    0.0000 C   0  0  0  0  0  0  0  0  0  0  0  0
   13.7418  -18.5353    0.0000 C   0  0  0  0  0  0  0  0  0  0  0  0
   14.4551  -18.1314    0.0000 C   0  0  0  0  0  0  0  0  0  0  0  0
   14.4643  -17.3078    0.0000 C   0  0  0  0  0  0  0  0  0  0  0  0
   13.7540  -16.8897    0.0000 O   0  0  0  0  0  0  0  0  0  0  0  0
   13.0344  -17.2952    0.0000 C   0  0  0  0  0  0  0  0  0  0  0  0
   12.3221  -16.8774    0.0000 O   0  0  0  0  0  0  0  0  0  0  0  0
   11.5993  -18.1088    0.0000 O   0  0  0  0  0  0  0  0  0  0  0  0
   13.0158  -18.9377    0.0000 C   0  0  0  0  0  0  0  0  0  0  0  0
   13.7452  -20.9984    0.0000 O   0  0  0  0  0  0  0  0  0  0  0  0
   11.5937  -18.9377    0.0000 C   0  0  0  0  0  0  0  0  0  0  0  0
   10.8805  -20.1722    0.0000 C   0  0  0  0  0  0  0  0  0  0  0  0
   14.4593  -20.5838    0.0000 C   0  0  0  0  0  0  0  0  0  0  0  0
   15.1754  -20.9949    0.0000 C   0  0  0  0  0  0  0  0  0  0  0  0
   14.4571  -19.7581    0.0000 O   0  0  0  0  0  0  0  0  0  0  0  0
   15.1754  -21.8205    0.0000 C   0  0  0  0  0  0  0  0  0  0  0  0
   15.8907  -22.2316    0.0000 C   0  0  0  0  0  0  0  0  0  0  0  0
   16.6057  -21.8168    0.0000 C   0  0  0  0  0  0  0  0  0  0  0  0
   16.6009  -20.9868    0.0000 C   0  0  0  0  0  0  0  0  0  0  0  0
   15.8851  -20.5796    0.0000 C   0  0  0  0  0  0  0  0  0  0  0  0
   15.1838  -16.9026    0.0000 C   0  0  0  0  0  0  0  0  0  0  0  0
   15.8950  -17.3241    0.0000 C   0  0  0  0  0  0  0  0  0  0  0  0
   16.6137  -16.9189    0.0000 N   0  0  0  0  0  0  0  0  0  0  0  0
   16.6221  -16.0924    0.0000 C   0  0  0  0  0  0  0  0  0  0  0  0
   15.9060  -15.6727    0.0000 C   0  0  0  0  0  0  0  0  0  0  0  0
   15.1904  -16.0802    0.0000 C   0  0  0  0  0  0  0  0  0  0  0  0
   15.8801  -19.7539    0.0000 F   0  0  0  0  0  0  0  0  0  0  0  0
    8.7557  -22.2343    0.0000 C   0  0  0  0  0  0  0  0  0  0  0  0
    8.0412  -21.8218    0.0000 C   0  0  0  0  0  0  0  0  0  0  0  0
    7.3267  -22.2343    0.0000 C   0  0  0  0  0  0  0  0  0  0  0  0
    7.3267  -23.0593    0.0000 C   0  0  0  0  0  0  0  0  0  0  0  0
    8.0412  -23.4718    0.0000 C   0  0  0  0  0  0  0  0  0  0  0  0
    8.7557  -23.0593    0.0000 C   0  0  0  0  0  0  0  0  0  0  0  0
 12  1  1  0  0  0  0
  1  2  1  0  0  0  0
  4 11  1  0  0  0  0
  3  2  1  0  0  0  0
  3  4  1  0  0  0  0
  7  3  1  1  0  0  0
  4  5  1  1  0  0  0
  6  5  1  0  0  0  0
  8  6  1  0  0  0  0
  7  8  1  0  0  0  0
  7 10  1  0  0  0  0
  8  9  1  0  0  0  0
  9 18  1  0  0  0  0
 10 17  1  0  0  0  0
 11 12  1  0  0  0  0
 11 16  1  0  0  0  0
 12 13  1  1  0  0  0
 14 13  1  0  0  0  0
 14 15  1  0  0  0  0
 15 16  1  0  0  0  0
 17 18  2  0  0  0  0
 17 22  1  0  0  0  0
 18 19  1  0  0  0  0
 19 20  2  0  0  0  0
 20 21  1  0  0  0  0
 21 22  1  0  0  0  0
 22 23  2  0  0  0  0
 10 24  1  1  0  0  0
  8 25  1  1  0  0  0
  6 26  1  1  0  0  0
  3 27  1  1  0  0  0
 11 28  1  1  0  0  0
 26 29  1  0  0  0  0
 29 30  1  0  0  0  0
 29 31  2  0  0  0  0
 30 32  2  0  0  0  0
 32 33  1  0  0  0  0
 33 34  2  0  0  0  0
 34 35  1  0  0  0  0
 35 36  2  0  0  0  0
 36 30  1  0  0  0  0
 37 38  2  0  0  0  0
 38 39  1  0  0  0  0
 39 40  2  0  0  0  0
 40 41  1  0  0  0  0
 41 42  2  0  0  0  0
 42 37  1  0  0  0  0
 20 37  1  0  0  0  0
 36 43  1  0  0  0  0
 14 44  1  1  0  0  0
 49 44  2  0  0  0  0
 45 44  1  0  0  0  0
 45 46  2  0  0  0  0
 46 47  1  0  0  0  0
 47 48  2  0  0  0  0
 48 49  1  0  0  0  0
M  END
> <From>
www.bindingDB.org

> <BindingDB Reactant_set_id>
51068421

> <Ligand InChI>
InChI=1S/C39H38FNO8/c1-37-16-15-29-38(2,21-45-36(48-29)22-10-5-4-6-11-22)28(37)19-30(47-34(43)24-13-7-8-14-25(24)40)39(3)33(37)32(42)31-27(49-39)18-26(46-35(31)44)23-12-9-17-41-20-23/h4-14,17-18,20,28-30,32-33,36,42H,15-16,19,21H2,1-3H3/t28-,29+,30+,32+,33-,36-,37+,38+,39-/m1/s1

> <Ligand InChI Key>
BVVWXVQMJMLUQU-MKSFZIRSSA-N

> <BindingDB MonomerID>
50436334

> <BindingDB Ligand Name>
CHEMBL2398798

> <Target Name>
Sterol O-acyltransferase 2

> <Target Source Organism According to Curator or DataSource>


> <Ki (nM)>


> <IC50 (nM)>
 50

> <Kd (nM)>


> <EC50 (nM)>


> <kon (M-1-s-1)>


> <koff (s-1)>


> <pH>


> <Temp (C)>


> <Curation/DataSource>
ChEMBL

> <Article DOI>
10.1016/j.bmcl.2013.04.075

> <BindingDB Entry DOI>
10.7270/Q2WD41Z9

> <PMID>
23711919

> <PubChem AID>


> <Patent Number>


> <Authors>
Ohtawa, M; Yamazaki, H; Ohte, S; Matsuda, D; Ohshiro, T; Rudel, LL; Omura, S; Tomoda, H; Nagamitsu, T

> <Institution>
Kitasato University

> <Link to Ligand in BindingDB>
http://www.bindingdb.org/bind/chemsearch/marvin/MolStructure.jsp?monomerid=50436334

> <Link to Target in BindingDB>
http://www.bindingdb.org/jsp/dbsearch/PrimarySearch_ki.jsp?energyterm=kJ/mole&tag=pol&polymerid=7773&target=Sterol+O-acyltransferase+2&column=ki&startPg=0&Increment=50&submit=Search

> <Link to Ligand-Target Pair in BindingDB>
http://www.bindingdb.org/jsp/dbsearch/PrimarySearch_ki.jsp?energyterm=kJ/mole&tag=r21&monomerid=50436334&enzyme=Sterol+O-acyltransferase+2&column=ki&startPg=0&Increment=50&submit=Search

> <Ligand HET ID in PDB>


> <PDB ID(s) for Ligand-Target Complex>


> <PubChem CID>
71682502

> <PubChem SID>
175448651

> <ChEBI ID of Ligand>


> <ChEMBL ID of Ligand>
CHEMBL2398798

> <DrugBank ID of Ligand>


> <IUPHAR_GRAC ID of Ligand>


> <KEGG ID of Ligand>


> <ZINC ID of Ligand>
ZINC96272247

> <Number of Protein Chains in Target (>1 implies a multichain complex)>
1

> <BindingDB Target Chain Sequence>
MEPGGARLRLQRTEGLGGERERQPCGDGNTETHRAPDLVQWTRHMEAVKAQLLEQAQGQLRELLDRAMREAIQSYPSQDKPLPPPPPGSLSRTQEPSLGKQKVFIIRKSLLDELMEVQHFRTIYHMFIAGLCVFIISTLAIDFIDEGRLLLEFDLLIFSFGQLPLALVTWVPMFLSTLLAPYQALRLWARGTWTQATGLGCALLAAHAVVLCALPVHVAVEHQLPPASRCVLVFEQVRFLMKSYSFLREAVPGTLRARRGEGIQAPSFSSYLYFLFCPTLIYRETYPRTPYVRWNYVAKNFAQALGCVLYACFILGRLCVPVFANMSREPFSTRALVLSILHATLPGIFMLLLIFFAFLHCWLNAFAEMLRFGDRMFYRDWWNSTSFSNYYRTWNVVVHDWLYSYVYQDGLRLLGARARGVAMLGVFLVSAVAHEYIFCFVLGFFYPVMLILFLVIGGMLNFMMHDQRTGPAWNVLMWTMLFLGQGIQVSLYCQEWYARRHCPLPQATFWGLVTPRSWSCHT

> <PDB ID(s) of Target Chain>


> <UniProt (SwissProt) Recommended Name of Target Chain>
Sterol O-acyltransferase 2

> <UniProt (SwissProt) Entry Name of Target Chain>
ACAT-2

> <UniProt (SwissProt) Primary ID of Target Chain>
O75908

> <UniProt (SwissProt) Secondary ID(s) of Target Chain>
F5H7W4 I6L9H9 Q4VB99 Q4VBA1 Q96TD4 Q9UNR2

> <UniProt (SwissProt) Alternative ID(s) of Target Chain>


> <UniProt (TrEMBL) Submitted Name of Target Chain>


> <UniProt (TrEMBL) Entry Name of Target Chain>


> <UniProt (TrEMBL) Primary ID of Target Chain>


> <UniProt (TrEMBL) Secondary ID(s) of Target Chain>


> <UniProt (TrEMBL) Alternative ID(s) of Target Chain>


$$$$
00048001.cdx
  Mrv0541 12012113462D          

 38 41  0  0  0  0            999 V2000
    1.1581   -0.8517    0.0000 C   0  0  0  0  0  0  0  0  0  0  0  0
    1.8726   -0.4392    0.0000 C   0  0  2  0  0  0  0  0  0  0  0  0
    1.8726    0.3858    0.0000 C   0  0  0  0  0  0  0  0  0  0  0  0
    1.1581    0.7983    0.0000 C   0  0  2  0  0  0  0  0  0  0  0  0
    0.4436    0.3858    0.0000 C   0  0  1  0  0  0  0  0  0  0  0  0
    0.4436   -0.4392    0.0000 C   0  0  1  0  0  0  0  0  0  0  0  0
   -0.2708    0.7983    0.0000 O   0  0  0  0  0  0  0  0  0  0  0  0
   -0.9853    0.3858    0.0000 C   0  0  0  0  0  0  0  0  0  0  0  0
   -0.9853   -0.4392    0.0000 C   0  0  0  0  0  0  0  0  0  0  0  0
   -0.2708   -0.8517    0.0000 C   0  0  2  0  0  0  0  0  0  0  0  0
   -1.6998    0.7983    0.0000 C   0  0  0  0  0  0  0  0  0  0  0  0
   -2.4143    0.3858    0.0000 C   0  0  0  0  0  0  0  0  0  0  0  0
   -2.4143   -0.4392    0.0000 O   0  0  0  0  0  0  0  0  0  0  0  0
   -1.6998   -0.8517    0.0000 C   0  0  0  0  0  0  0  0  0  0  0  0
    2.5870   -0.8517    0.0000 C   0  0  1  0  0  0  0  0  0  0  0  0
    2.1745   -1.5662    0.0000 C   0  0  0  0  0  0  0  0  0  0  0  0
   -0.2708   -1.6767    0.0000 O   0  0  0  0  0  0  0  0  0  0  0  0
   -1.6998   -1.6767    0.0000 O   0  0  0  0  0  0  0  0  0  0  0  0
   -3.1287    0.7983    0.0000 C   0  0  0  0  0  0  0  0  0  0  0  0
   -3.8432    0.3858    0.0000 C   0  0  0  0  0  0  0  0  0  0  0  0
   -4.5577    0.7983    0.0000 N   0  0  0  0  0  0  0  0  0  0  0  0
   -4.5577    1.6233    0.0000 C   0  0  0  0  0  0  0  0  0  0  0  0
   -3.8432    2.0358    0.0000 C   0  0  0  0  0  0  0  0  0  0  0  0
   -3.1287    1.6233    0.0000 C   0  0  0  0  0  0  0  0  0  0  0  0
    0.4436    1.2108    0.0000 C   0  0  0  0  0  0  0  0  0  0  0  0
    2.9995   -0.1373    0.0000 C   0  0  0  0  0  0  0  0  0  0  0  0
    1.3495   -1.5662    0.0000 O   0  0  0  0  0  0  0  0  0  0  0  0
    1.1581    1.6233    0.0000 O   0  0  0  0  0  0  0  0  0  0  0  0
   -0.2708    1.6233    0.0000 O   0  0  0  0  0  0  0  0  0  0  0  0
    0.4436    2.0358    0.0000 C   0  0  0  0  0  0  0  0  0  0  0  0
    0.4436    2.8608    0.0000 C   0  0  0  0  0  0  0  0  0  0  0  0
    3.3015   -1.2642    0.0000 O   0  0  0  0  0  0  0  0  0  0  0  0
    4.0160   -2.5017    0.0000 O   0  0  0  0  0  0  0  0  0  0  0  0
    3.3015   -2.0892    0.0000 C   0  0  0  0  0  0  0  0  0  0  0  0
    2.5870   -2.5017    0.0000 C   0  0  0  0  0  0  0  0  0  0  0  0
    0.9370   -2.2807    0.0000 C   0  0  0  0  0  0  0  0  0  0  0  0
    0.1120   -2.2807    0.0000 C   0  0  0  0  0  0  0  0  0  0  0  0
    1.3495   -2.9951    0.0000 O   0  0  0  0  0  0  0  0  0  0  0  0
  2  1  1  0  0  0  0
  2  3  1  0  0  0  0
  4  3  1  0  0  0  0
  5  4  1  0  0  0  0
  5  6  1  0  0  0  0
  6  1  1  6  0  0  0
  5  7  1  0  0  0  0
  7  8  1  0  0  0  0
  8  9  4  0  0  0  0
 10  9  1  0  0  0  0
  6 10  1  0  0  0  0
  8 11  4  0  0  0  0
 11 12  4  0  0  0  0
 12 13  4  0  0  0  0
 13 14  4  0  0  0  0
 14  9  4  0  0  0  0
  2 15  1  6  0  0  0
 15 16  1  0  0  0  0
 10 17  1  1  0  0  0
 14 18  2  0  0  0  0
 12 19  1  0  0  0  0
 19 20  4  0  0  0  0
 20 21  4  0  0  0  0
 21 22  4  0  0  0  0
 22 23  4  0  0  0  0
 23 24  4  0  0  0  0
 24 19  4  0  0  0  0
  5 25  1  6  0  0  0
 15 26  1  6  0  0  0
  4 28  1  6  0  0  0
 15 32  1  1  0  0  0
 32 34  1  0  0  0  0
 33 34  2  0  0  0  0
 34 35  1  0  0  0  0
 28 30  1  0  0  0  0
 29 30  2  0  0  0  0
 30 31  1  0  0  0  0
 16 27  1  0  0  0  0
 27 36  1  0  0  0  0
 36 37  1  0  0  0  0
 36 38  2  0  0  0  0
M  END
> <From>
www.bindingDB.org

> <BindingDB Reactant_set_id>
765847

> <Ligand InChI>
InChI=1S/C27H31NO10/c1-14(29)34-13-26(4,37-16(3)31)18-9-19-24(32)23-21(38-27(19,5)22(10-18)35-15(2)30)11-20(36-25(23)33)17-7-6-8-28-12-17/h6-8,11-12,18-19,22,24,32H,9-10,13H2,1-5H3/t18-,19-,22-,24-,26+,27-/m1/s1

> <Ligand InChI Key>
NIGGKHQHUNJNPM-YBEFSANESA-N

> <BindingDB MonomerID>
383183

> <BindingDB Ligand Name>
US10278962, Compound 21

> <Target Name>
Sterol O-acyltransferase 2

> <Target Source Organism According to Curator or DataSource>


> <Ki (nM)>


> <IC50 (nM)>
 55.0

> <Kd (nM)>


> <EC50 (nM)>


> <kon (M-1-s-1)>


> <koff (s-1)>


> <pH>


> <Temp (C)>


> <Curation/DataSource>
US Patent

> <Article DOI>


> <BindingDB Entry DOI>
10.7270/Q2CF9SF8

> <PMID>


> <PubChem AID>
aid1798542

> <Patent Number>
US10278962

> <Authors>
Nan, F; Li, B; Zhan, Y; Zhang, X; Xiong, Y; Hu, X; Zhang, Y

> <Institution>
Shanghai Institute of Materia Medica, Chinese Academy of Sciences

> <Link to Ligand in BindingDB>
http://www.bindingdb.org/bind/chemsearch/marvin/MolStructure.jsp?monomerid=383183

> <Link to Target in BindingDB>
http://www.bindingdb.org/jsp/dbsearch/PrimarySearch_ki.jsp?energyterm=kJ/mole&tag=pol&polymerid=7773&target=Sterol+O-acyltransferase+2&column=ki&startPg=0&Increment=50&submit=Search

> <Link to Ligand-Target Pair in BindingDB>
http://www.bindingdb.org/jsp/dbsearch/PrimarySearch_ki.jsp?energyterm=kJ/mole&tag=r21&monomerid=383183&enzyme=Sterol+O-acyltransferase+2&column=ki&startPg=0&Increment=50&submit=Search

> <Ligand HET ID in PDB>


> <PDB ID(s) for Ligand-Target Complex>


> <PubChem CID>
134188332

> <PubChem SID>
404852477

> <ChEBI ID of Ligand>


> <ChEMBL ID of Ligand>


> <DrugBank ID of Ligand>


> <IUPHAR_GRAC ID of Ligand>


> <KEGG ID of Ligand>


> <ZINC ID of Ligand>


> <Number of Protein Chains in Target (>1 implies a multichain complex)>
1

> <BindingDB Target Chain Sequence>
MEPGGARLRLQRTEGLGGERERQPCGDGNTETHRAPDLVQWTRHMEAVKAQLLEQAQGQLRELLDRAMREAIQSYPSQDKPLPPPPPGSLSRTQEPSLGKQKVFIIRKSLLDELMEVQHFRTIYHMFIAGLCVFIISTLAIDFIDEGRLLLEFDLLIFSFGQLPLALVTWVPMFLSTLLAPYQALRLWARGTWTQATGLGCALLAAHAVVLCALPVHVAVEHQLPPASRCVLVFEQVRFLMKSYSFLREAVPGTLRARRGEGIQAPSFSSYLYFLFCPTLIYRETYPRTPYVRWNYVAKNFAQALGCVLYACFILGRLCVPVFANMSREPFSTRALVLSILHATLPGIFMLLLIFFAFLHCWLNAFAEMLRFGDRMFYRDWWNSTSFSNYYRTWNVVVHDWLYSYVYQDGLRLLGARARGVAMLGVFLVSAVAHEYIFCFVLGFFYPVMLILFLVIGGMLNFMMHDQRTGPAWNVLMWTMLFLGQGIQVSLYCQEWYARRHCPLPQATFWGLVTPRSWSCHT

> <PDB ID(s) of Target Chain>


> <UniProt (SwissProt) Recommended Name of Target Chain>
Sterol O-acyltransferase 2

> <UniProt (SwissProt) Entry Name of Target Chain>
ACAT-2

> <UniProt (SwissProt) Primary ID of Target Chain>
O75908

> <UniProt (SwissProt) Secondary ID(s) of Target Chain>
F5H7W4 I6L9H9 Q4VB99 Q4VBA1 Q96TD4 Q9UNR2

> <UniProt (SwissProt) Alternative ID(s) of Target Chain>


> <UniProt (TrEMBL) Submitted Name of Target Chain>


> <UniProt (TrEMBL) Entry Name of Target Chain>


> <UniProt (TrEMBL) Primary ID of Target Chain>


> <UniProt (TrEMBL) Secondary ID(s) of Target Chain>


> <UniProt (TrEMBL) Alternative ID(s) of Target Chain>


$$$$

  Mrv0541 11241417102D          

 48 53  0  0  0  0            999 V2000
   32.4216  -28.7382    0.0000 C   0  0  0  0  0  0  0  0  0  0  0  0
   32.0133  -28.0256    0.0000 C   0  0  2  0  0  0  0  0  0  0  0  0
   31.6004  -28.7356    0.0000 C   0  0  0  0  0  0  0  0  0  0  0  0
   31.3050  -26.7923    0.0000 C   0  0  0  0  0  0  0  0  0  0  0  0
   31.3050  -27.6174    0.0000 C   0  0  2  0  0  0  0  0  0  0  0  0
   32.0169  -26.3757    0.0000 C   0  0  0  0  0  0  0  0  0  0  0  0
   32.7290  -26.7923    0.0000 C   0  0  1  0  0  0  0  0  0  0  0  0
   32.7301  -27.6174    0.0000 C   0  0  1  0  0  0  0  0  0  0  0  0
   33.4411  -28.0266    0.0000 C   0  0  0  0  0  0  0  0  0  0  0  0
   34.1557  -27.6155    0.0000 C   0  0  1  0  0  0  0  0  0  0  0  0
   33.4390  -26.3766    0.0000 C   0  0  2  0  0  0  0  0  0  0  0  0
   34.1543  -26.7952    0.0000 C   0  0  2  0  0  0  0  0  0  0  0  0
   34.8703  -26.3872    0.0000 O   0  0  0  0  0  0  0  0  0  0  0  0
   33.4398  -25.5502    0.0000 C   0  0  2  0  0  0  0  0  0  0  0  0
   34.1622  -25.1407    0.0000 C   0  0  0  0  0  0  0  0  0  0  0  0
   34.8803  -25.5629    0.0000 C   0  0  0  0  0  0  0  0  0  0  0  0
   35.6009  -25.1543    0.0000 C   0  0  0  0  0  0  0  0  0  0  0  0
   35.6098  -24.3220    0.0000 C   0  0  0  0  0  0  0  0  0  0  0  0
   34.8917  -23.8998    0.0000 O   0  0  0  0  0  0  0  0  0  0  0  0
   34.1647  -24.3100    0.0000 C   0  0  0  0  0  0  0  0  0  0  0  0
   36.3236  -23.9177    0.0000 C   0  0  0  0  0  0  0  0  0  0  0  0
   37.0345  -24.3385    0.0000 C   0  0  0  0  0  0  0  0  0  0  0  0
   37.7523  -23.9334    0.0000 N   0  0  0  0  0  0  0  0  0  0  0  0
   37.7604  -23.1075    0.0000 C   0  0  0  0  0  0  0  0  0  0  0  0
   37.0447  -22.6885    0.0000 C   0  0  0  0  0  0  0  0  0  0  0  0
   36.3299  -23.0961    0.0000 C   0  0  0  0  0  0  0  0  0  0  0  0
   33.4529  -23.8928    0.0000 O   0  0  0  0  0  0  0  0  0  0  0  0
   34.8702  -28.0280    0.0000 O   0  0  0  0  0  0  0  0  0  0  0  0
   35.5847  -27.6153    0.0000 C   0  0  0  0  0  0  0  0  0  0  0  0
   36.2992  -28.0278    0.0000 C   0  0  0  0  0  0  0  0  0  0  0  0
   35.5846  -26.7903    0.0000 O   0  0  0  0  0  0  0  0  0  0  0  0
   30.5911  -28.0309    0.0000 O   0  0  0  0  0  0  0  0  0  0  0  0
   29.8760  -27.6194    0.0000 C   0  0  0  0  0  0  0  0  0  0  0  0
   29.1620  -28.0329    0.0000 C   0  0  0  0  0  0  0  0  0  0  0  0
   29.8748  -26.7944    0.0000 O   0  0  0  0  0  0  0  0  0  0  0  0
   32.0068  -29.4514    0.0000 O   0  0  0  0  0  0  0  0  0  0  0  0
   32.4170  -30.1672    0.0000 C   0  0  0  0  0  0  0  0  0  0  0  0
   32.0023  -30.8803    0.0000 C   0  0  0  0  0  0  0  0  0  0  0  0
   33.2420  -30.1698    0.0000 O   0  0  0  0  0  0  0  0  0  0  0  0
   32.7271  -25.1346    0.0000 O   0  0  0  0  0  0  0  0  0  0  0  0
   32.7216  -25.9673    0.0000 C   0  0  0  0  0  0  0  0  0  0  0  0
   34.1466  -25.9673    0.0000 C   0  0  0  0  0  0  0  0  0  0  0  0
   36.2940  -28.8518    0.0000 C   0  0  0  0  0  0  0  0  0  0  0  0
   37.0078  -29.2641    0.0000 C   0  0  0  0  0  0  0  0  0  0  0  0
   37.7232  -28.8515    0.0000 C   0  0  0  0  0  0  0  0  0  0  0  0
   37.7204  -28.0222    0.0000 C   0  0  0  0  0  0  0  0  0  0  0  0
   37.0062  -27.6135    0.0000 C   0  0  0  0  0  0  0  0  0  0  0  0
   37.0018  -26.7886    0.0000 Cl  0  0  0  0  0  0  0  0  0  0  0  0
  2  1  1  6  0  0  0
  2  3  1  1  0  0  0
  5  4  1  0  0  0  0
  4  6  1  0  0  0  0
  2  5  1  0  0  0  0
  8  2  1  0  0  0  0
  7  6  1  0  0  0  0
  7  8  1  0  0  0  0
 11  7  1  1  0  0  0
  8  9  1  1  0  0  0
 10  9  1  0  0  0  0
 12 10  1  0  0  0  0
 11 12  1  0  0  0  0
 11 14  1  0  0  0  0
 12 13  1  0  0  0  0
 13 16  1  0  0  0  0
 14 15  1  0  0  0  0
 15 16  2  0  0  0  0
 15 20  1  0  0  0  0
 16 17  1  0  0  0  0
 17 18  2  0  0  0  0
 18 19  1  0  0  0  0
 19 20  1  0  0  0  0
 21 22  2  0  0  0  0
 22 23  1  0  0  0  0
 23 24  2  0  0  0  0
 24 25  1  0  0  0  0
 25 26  2  0  0  0  0
 26 21  1  0  0  0  0
 18 21  1  0  0  0  0
 20 27  2  0  0  0  0
 10 28  1  1  0  0  0
 28 29  1  0  0  0  0
 29 30  1  0  0  0  0
 29 31  2  0  0  0  0
  5 32  1  1  0  0  0
 32 33  1  0  0  0  0
 33 34  1  0  0  0  0
 33 35  2  0  0  0  0
  1 36  1  0  0  0  0
 36 37  1  0  0  0  0
 37 38  1  0  0  0  0
 37 39  2  0  0  0  0
 14 40  1  1  0  0  0
  7 41  1  1  0  0  0
 12 42  1  1  0  0  0
 30 43  2  0  0  0  0
 43 44  1  0  0  0  0
 44 45  2  0  0  0  0
 45 46  1  0  0  0  0
 46 47  2  0  0  0  0
 47 30  1  0  0  0  0
 47 48  1  0  0  0  0
M  END
> <From>
www.bindingDB.org

> <BindingDB Reactant_set_id>
51053272

> <Ligand InChI>
InChI=1S/C36H38ClNO10/c1-19(39)44-18-35(4)26-16-28(47-32(42)22-10-6-7-11-23(22)37)36(5)31(34(26,3)13-12-27(35)45-20(2)40)30(41)29-25(48-36)15-24(46-33(29)43)21-9-8-14-38-17-21/h6-11,14-15,17,26-28,30-31,41H,12-13,16,18H2,1-5H3/t26-,27+,28+,30+,31-,34+,35+,36-/m1/s1

> <Ligand InChI Key>
PBHTTWMIOJUAII-HRSZXCBJSA-N

> <BindingDB MonomerID>
50429582

> <BindingDB Ligand Name>
CHEMBL2334207

> <Target Name>
Sterol O-acyltransferase 2

> <Target Source Organism According to Curator or DataSource>


> <Ki (nM)>


> <IC50 (nM)>
 60

> <Kd (nM)>


> <EC50 (nM)>


> <kon (M-1-s-1)>


> <koff (s-1)>


> <pH>


> <Temp (C)>


> <Curation/DataSource>
ChEMBL

> <Article DOI>
10.1016/j.bmcl.2012.12.099

> <BindingDB Entry DOI>
10.7270/Q2P270HW

> <PMID>
23369538

> <PubChem AID>


> <Patent Number>


> <Authors>
Ohtawa, M; Yamazaki, H; Ohte, S; Matsuda, D; Ohshiro, T; Rudel, LL; Omura, S; Tomoda, H; Nagamitsu, T

> <Institution>
Kitasato University

> <Link to Ligand in BindingDB>
http://www.bindingdb.org/bind/chemsearch/marvin/MolStructure.jsp?monomerid=50429582

> <Link to Target in BindingDB>
http://www.bindingdb.org/jsp/dbsearch/PrimarySearch_ki.jsp?energyterm=kJ/mole&tag=pol&polymerid=7773&target=Sterol+O-acyltransferase+2&column=ki&startPg=0&Increment=50&submit=Search

> <Link to Ligand-Target Pair in BindingDB>
http://www.bindingdb.org/jsp/dbsearch/PrimarySearch_ki.jsp?energyterm=kJ/mole&tag=r21&monomerid=50429582&enzyme=Sterol+O-acyltransferase+2&column=ki&startPg=0&Increment=50&submit=Search

> <Ligand HET ID in PDB>


> <PDB ID(s) for Ligand-Target Complex>


> <PubChem CID>
71559435

> <PubChem SID>
164158457

> <ChEBI ID of Ligand>


> <ChEMBL ID of Ligand>
CHEMBL2334207

> <DrugBank ID of Ligand>


> <IUPHAR_GRAC ID of Ligand>


> <KEGG ID of Ligand>


> <ZINC ID of Ligand>
ZINC95586566

> <Number of Protein Chains in Target (>1 implies a multichain complex)>
1

> <BindingDB Target Chain Sequence>
MEPGGARLRLQRTEGLGGERERQPCGDGNTETHRAPDLVQWTRHMEAVKAQLLEQAQGQLRELLDRAMREAIQSYPSQDKPLPPPPPGSLSRTQEPSLGKQKVFIIRKSLLDELMEVQHFRTIYHMFIAGLCVFIISTLAIDFIDEGRLLLEFDLLIFSFGQLPLALVTWVPMFLSTLLAPYQALRLWARGTWTQATGLGCALLAAHAVVLCALPVHVAVEHQLPPASRCVLVFEQVRFLMKSYSFLREAVPGTLRARRGEGIQAPSFSSYLYFLFCPTLIYRETYPRTPYVRWNYVAKNFAQALGCVLYACFILGRLCVPVFANMSREPFSTRALVLSILHATLPGIFMLLLIFFAFLHCWLNAFAEMLRFGDRMFYRDWWNSTSFSNYYRTWNVVVHDWLYSYVYQDGLRLLGARARGVAMLGVFLVSAVAHEYIFCFVLGFFYPVMLILFLVIGGMLNFMMHDQRTGPAWNVLMWTMLFLGQGIQVSLYCQEWYARRHCPLPQATFWGLVTPRSWSCHT

> <PDB ID(s) of Target Chain>


> <UniProt (SwissProt) Recommended Name of Target Chain>
Sterol O-acyltransferase 2

> <UniProt (SwissProt) Entry Name of Target Chain>
ACAT-2

> <UniProt (SwissProt) Primary ID of Target Chain>
O75908

> <UniProt (SwissProt) Secondary ID(s) of Target Chain>
F5H7W4 I6L9H9 Q4VB99 Q4VBA1 Q96TD4 Q9UNR2

> <UniProt (SwissProt) Alternative ID(s) of Target Chain>


> <UniProt (TrEMBL) Submitted Name of Target Chain>


> <UniProt (TrEMBL) Entry Name of Target Chain>


> <UniProt (TrEMBL) Primary ID of Target Chain>


> <UniProt (TrEMBL) Secondary ID(s) of Target Chain>


> <UniProt (TrEMBL) Alternative ID(s) of Target Chain>


$$$$

  Mrv0541 11241418062D          

 51 58  0  0  0  0            999 V2000
   18.5624  -19.6092    0.0000 C   0  0  0  0  0  0  0  0  0  0  0  0
   19.2751  -19.1921    0.0000 C   0  0  0  0  0  0  0  0  0  0  0  0
   19.9878  -19.6092    0.0000 C   0  0  1  0  0  0  0  0  0  0  0  0
   19.9888  -20.4349    0.0000 C   0  0  1  0  0  0  0  0  0  0  0  0
   20.7005  -20.8446    0.0000 C   0  0  0  0  0  0  0  0  0  0  0  0
   21.4157  -20.4331    0.0000 C   0  0  1  0  0  0  0  0  0  0  0  0
   20.6983  -19.1932    0.0000 C   0  0  2  0  0  0  0  0  0  0  0  0
   21.4103  -19.6097    0.0000 C   0  0  2  0  0  0  0  0  0  0  0  0
   22.1230  -19.2037    0.0000 O   0  0  0  0  0  0  0  0  0  0  0  0
   20.6991  -18.3705    0.0000 C   0  0  2  0  0  0  0  0  0  0  0  0
   19.2751  -20.8436    0.0000 C   0  0  1  0  0  0  0  0  0  0  0  0
   18.5624  -20.4349    0.0000 C   0  0  1  0  0  0  0  0  0  0  0  0
   17.8561  -20.8455    0.0000 O   0  0  0  0  0  0  0  0  0  0  0  0
   17.8562  -21.6664    0.0000 C   0  0  1  0  0  0  0  0  0  0  0  0
   18.5689  -22.0751    0.0000 O   0  0  0  0  0  0  0  0  0  0  0  0
   19.2814  -21.6629    0.0000 C   0  0  0  0  0  0  0  0  0  0  0  0
   21.4181  -17.9629    0.0000 C   0  0  0  0  0  0  0  0  0  0  0  0
   22.1285  -18.3809    0.0000 C   0  0  0  0  0  0  0  0  0  0  0  0
   22.8418  -17.9771    0.0000 C   0  0  0  0  0  0  0  0  0  0  0  0
   22.8509  -17.1535    0.0000 C   0  0  0  0  0  0  0  0  0  0  0  0
   22.1406  -16.7354    0.0000 O   0  0  0  0  0  0  0  0  0  0  0  0
   21.4210  -17.1409    0.0000 C   0  0  0  0  0  0  0  0  0  0  0  0
   20.7088  -16.7231    0.0000 O   0  0  0  0  0  0  0  0  0  0  0  0
   19.9859  -17.9545    0.0000 O   0  0  0  0  0  0  0  0  0  0  0  0
   21.4024  -18.7834    0.0000 C   0  0  0  0  0  0  0  0  0  0  0  0
   22.1318  -20.8441    0.0000 O   0  0  0  0  0  0  0  0  0  0  0  0
   19.9804  -18.7834    0.0000 C   0  0  0  0  0  0  0  0  0  0  0  0
   19.2672  -20.0179    0.0000 C   0  0  0  0  0  0  0  0  0  0  0  0
   22.8459  -20.4296    0.0000 C   0  0  0  0  0  0  0  0  0  0  0  0
   23.5621  -20.8406    0.0000 C   0  0  0  0  0  0  0  0  0  0  0  0
   22.8438  -19.6038    0.0000 O   0  0  0  0  0  0  0  0  0  0  0  0
   23.5620  -21.6663    0.0000 C   0  0  0  0  0  0  0  0  0  0  0  0
   24.2773  -22.0773    0.0000 C   0  0  0  0  0  0  0  0  0  0  0  0
   24.9924  -21.6625    0.0000 C   0  0  0  0  0  0  0  0  0  0  0  0
   24.9876  -20.8325    0.0000 C   0  0  0  0  0  0  0  0  0  0  0  0
   24.2717  -20.4253    0.0000 C   0  0  0  0  0  0  0  0  0  0  0  0
   23.5704  -16.7482    0.0000 C   0  0  0  0  0  0  0  0  0  0  0  0
   24.2817  -17.1698    0.0000 C   0  0  0  0  0  0  0  0  0  0  0  0
   25.0004  -16.7646    0.0000 N   0  0  0  0  0  0  0  0  0  0  0  0
   25.0088  -15.9381    0.0000 C   0  0  0  0  0  0  0  0  0  0  0  0
   24.2927  -15.5183    0.0000 C   0  0  0  0  0  0  0  0  0  0  0  0
   23.5770  -15.9259    0.0000 C   0  0  0  0  0  0  0  0  0  0  0  0
   25.7133  -22.0739    0.0000 N   0  3  0  0  0  0  0  0  0  0  0  0
   26.4268  -21.6583    0.0000 O   0  0  0  0  0  0  0  0  0  0  0  0
   25.7165  -22.8996    0.0000 O   0  5  0  0  0  0  0  0  0  0  0  0
   17.1424  -22.0800    0.0000 C   0  0  0  0  0  0  0  0  0  0  0  0
   16.4279  -21.6675    0.0000 C   0  0  0  0  0  0  0  0  0  0  0  0
   15.7134  -22.0800    0.0000 C   0  0  0  0  0  0  0  0  0  0  0  0
   15.7134  -22.9050    0.0000 C   0  0  0  0  0  0  0  0  0  0  0  0
   16.4279  -23.3175    0.0000 C   0  0  0  0  0  0  0  0  0  0  0  0
   17.1424  -22.9050    0.0000 C   0  0  0  0  0  0  0  0  0  0  0  0
 12  1  1  0  0  0  0
  1  2  1  0  0  0  0
  4 11  1  0  0  0  0
  3  2  1  0  0  0  0
  3  4  1  0  0  0  0
  7  3  1  1  0  0  0
  4  5  1  1  0  0  0
  6  5  1  0  0  0  0
  8  6  1  0  0  0  0
  7  8  1  0  0  0  0
  7 10  1  0  0  0  0
  8  9  1  0  0  0  0
  9 18  1  0  0  0  0
 10 17  1  0  0  0  0
 11 12  1  0  0  0  0
 11 16  1  0  0  0  0
 12 13  1  1  0  0  0
 14 13  1  0  0  0  0
 14 15  1  0  0  0  0
 15 16  1  0  0  0  0
 17 18  2  0  0  0  0
 17 22  1  0  0  0  0
 18 19  1  0  0  0  0
 19 20  2  0  0  0  0
 20 21  1  0  0  0  0
 21 22  1  0  0  0  0
 22 23  2  0  0  0  0
 10 24  1  1  0  0  0
  8 25  1  1  0  0  0
  6 26  1  1  0  0  0
  3 27  1  1  0  0  0
 11 28  1  1  0  0  0
 26 29  1  0  0  0  0
 29 30  1  0  0  0  0
 29 31  2  0  0  0  0
 30 32  2  0  0  0  0
 32 33  1  0  0  0  0
 33 34  2  0  0  0  0
 34 35  1  0  0  0  0
 35 36  2  0  0  0  0
 36 30  1  0  0  0  0
 37 38  2  0  0  0  0
 38 39  1  0  0  0  0
 39 40  2  0  0  0  0
 40 41  1  0  0  0  0
 41 42  2  0  0  0  0
 42 37  1  0  0  0  0
 20 37  1  0  0  0  0
 43 44  2  0  0  0  0
 43 45  1  0  0  0  0
 34 43  1  0  0  0  0
 14 46  1  1  0  0  0
 51 46  2  0  0  0  0
 47 46  1  0  0  0  0
 47 48  2  0  0  0  0
 48 49  1  0  0  0  0
 49 50  2  0  0  0  0
 50 51  1  0  0  0  0
M  CHG  2  43   1  45  -1
M  END
> <From>
www.bindingDB.org

> <BindingDB Reactant_set_id>
51068420

> <Ligand InChI>
InChI=1S/C39H38N2O10/c1-37-16-15-29-38(2,21-47-36(50-29)23-8-5-4-6-9-23)28(37)19-30(49-34(43)22-11-13-25(14-12-22)41(45)46)39(3)33(37)32(42)31-27(51-39)18-26(48-35(31)44)24-10-7-17-40-20-24/h4-14,17-18,20,28-30,32-33,36,42H,15-16,19,21H2,1-3H3/t28-,29+,30+,32+,33-,36-,37+,38+,39-/m1/s1

> <Ligand InChI Key>
XFYILCZWJPXUMJ-MKSFZIRSSA-N

> <BindingDB MonomerID>
50436333

> <BindingDB Ligand Name>
CHEMBL2398799

> <Target Name>
Sterol O-acyltransferase 2

> <Target Source Organism According to Curator or DataSource>


> <Ki (nM)>


> <IC50 (nM)>
 60

> <Kd (nM)>


> <EC50 (nM)>


> <kon (M-1-s-1)>


> <koff (s-1)>


> <pH>


> <Temp (C)>


> <Curation/DataSource>
ChEMBL

> <Article DOI>
10.1016/j.bmcl.2013.04.075

> <BindingDB Entry DOI>
10.7270/Q2WD41Z9

> <PMID>
23711919

> <PubChem AID>


> <Patent Number>


> <Authors>
Ohtawa, M; Yamazaki, H; Ohte, S; Matsuda, D; Ohshiro, T; Rudel, LL; Omura, S; Tomoda, H; Nagamitsu, T

> <Institution>
Kitasato University

> <Link to Ligand in BindingDB>
http://www.bindingdb.org/bind/chemsearch/marvin/MolStructure.jsp?monomerid=50436333

> <Link to Target in BindingDB>
http://www.bindingdb.org/jsp/dbsearch/PrimarySearch_ki.jsp?energyterm=kJ/mole&tag=pol&polymerid=7773&target=Sterol+O-acyltransferase+2&column=ki&startPg=0&Increment=50&submit=Search

> <Link to Ligand-Target Pair in BindingDB>
http://www.bindingdb.org/jsp/dbsearch/PrimarySearch_ki.jsp?energyterm=kJ/mole&tag=r21&monomerid=50436333&enzyme=Sterol+O-acyltransferase+2&column=ki&startPg=0&Increment=50&submit=Search

> <Ligand HET ID in PDB>


> <PDB ID(s) for Ligand-Target Complex>


> <PubChem CID>
71682503

> <PubChem SID>
175448650

> <ChEBI ID of Ligand>


> <ChEMBL ID of Ligand>
CHEMBL2398799

> <DrugBank ID of Ligand>


> <IUPHAR_GRAC ID of Ligand>


> <KEGG ID of Ligand>


> <ZINC ID of Ligand>
ZINC96272246

> <Number of Protein Chains in Target (>1 implies a multichain complex)>
1

> <BindingDB Target Chain Sequence>
MEPGGARLRLQRTEGLGGERERQPCGDGNTETHRAPDLVQWTRHMEAVKAQLLEQAQGQLRELLDRAMREAIQSYPSQDKPLPPPPPGSLSRTQEPSLGKQKVFIIRKSLLDELMEVQHFRTIYHMFIAGLCVFIISTLAIDFIDEGRLLLEFDLLIFSFGQLPLALVTWVPMFLSTLLAPYQALRLWARGTWTQATGLGCALLAAHAVVLCALPVHVAVEHQLPPASRCVLVFEQVRFLMKSYSFLREAVPGTLRARRGEGIQAPSFSSYLYFLFCPTLIYRETYPRTPYVRWNYVAKNFAQALGCVLYACFILGRLCVPVFANMSREPFSTRALVLSILHATLPGIFMLLLIFFAFLHCWLNAFAEMLRFGDRMFYRDWWNSTSFSNYYRTWNVVVHDWLYSYVYQDGLRLLGARARGVAMLGVFLVSAVAHEYIFCFVLGFFYPVMLILFLVIGGMLNFMMHDQRTGPAWNVLMWTMLFLGQGIQVSLYCQEWYARRHCPLPQATFWGLVTPRSWSCHT

> <PDB ID(s) of Target Chain>


> <UniProt (SwissProt) Recommended Name of Target Chain>
Sterol O-acyltransferase 2

> <UniProt (SwissProt) Entry Name of Target Chain>
ACAT-2

> <UniProt (SwissProt) Primary ID of Target Chain>
O75908

> <UniProt (SwissProt) Secondary ID(s) of Target Chain>
F5H7W4 I6L9H9 Q4VB99 Q4VBA1 Q96TD4 Q9UNR2

> <UniProt (SwissProt) Alternative ID(s) of Target Chain>


> <UniProt (TrEMBL) Submitted Name of Target Chain>


> <UniProt (TrEMBL) Entry Name of Target Chain>


> <UniProt (TrEMBL) Primary ID of Target Chain>


> <UniProt (TrEMBL) Secondary ID(s) of Target Chain>


> <UniProt (TrEMBL) Alternative ID(s) of Target Chain>


$$$$
00039001.cdx
  Mrv0541 12012113462D          

 48 52  0  0  0  0            999 V2000
   -4.3475  -12.6748    0.0000 C   0  0  0  0  0  0  0  0  0  0  0  0
   -3.6331  -13.0873    0.0000 C   0  0  1  0  0  0  0  0  0  0  0  0
   -3.6331  -13.9123    0.0000 C   0  0  0  0  0  0  0  0  0  0  0  0
   -4.3475  -14.3248    0.0000 C   0  0  1  0  0  0  0  0  0  0  0  0
   -5.0620  -13.9123    0.0000 C   0  0  2  0  0  0  0  0  0  0  0  0
   -5.0620  -13.0873    0.0000 C   0  0  2  0  0  0  0  0  0  0  0  0
   -5.7765  -12.6748    0.0000 C   0  0  2  0  0  0  0  0  0  0  0  0
   -5.7765  -14.3248    0.0000 O   0  0  0  0  0  0  0  0  0  0  0  0
   -2.9186  -12.6748    0.0000 C   0  0  3  0  0  0  0  0  0  0  0  0
   -3.3311  -11.9604    0.0000 C   0  0  0  0  0  0  0  0  0  0  0  0
   -4.3475  -15.1498    0.0000 O   0  0  0  0  0  0  0  0  0  0  0  0
   -5.7765  -11.8498    0.0000 O   0  0  0  0  0  0  0  0  0  0  0  0
   -6.4910  -13.0873    0.0000 C   0  0  0  0  0  0  0  0  0  0  0  0
   -6.4910  -13.9123    0.0000 C   0  0  0  0  0  0  0  0  0  0  0  0
   -7.2054  -14.3248    0.0000 C   0  0  0  0  0  0  0  0  0  0  0  0
   -5.0620  -14.7373    0.0000 C   0  0  0  0  0  0  0  0  0  0  0  0
   -7.9199  -13.9123    0.0000 C   0  0  0  0  0  0  0  0  0  0  0  0
   -7.9199  -13.0873    0.0000 O   0  0  0  0  0  0  0  0  0  0  0  0
   -7.2054  -12.6748    0.0000 C   0  0  0  0  0  0  0  0  0  0  0  0
   -7.2054  -11.8498    0.0000 O   0  0  0  0  0  0  0  0  0  0  0  0
   -8.6344  -14.3248    0.0000 C   0  0  0  0  0  0  0  0  0  0  0  0
   -8.6344  -15.1498    0.0000 C   0  0  0  0  0  0  0  0  0  0  0  0
   -9.3488  -15.5623    0.0000 N   0  0  0  0  0  0  0  0  0  0  0  0
  -10.0633  -15.1498    0.0000 C   0  0  0  0  0  0  0  0  0  0  0  0
   -9.3488  -13.9123    0.0000 C   0  0  0  0  0  0  0  0  0  0  0  0
   -2.9186  -11.2459    0.0000 O   0  0  0  0  0  0  0  0  0  0  0  0
   -2.2041  -12.2623    0.0000 C   0  0  0  0  0  0  0  0  0  0  0  0
  -10.0633  -14.3248    0.0000 C   0  0  0  0  0  0  0  0  0  0  0  0
   -3.6331  -15.5623    0.0000 C   0  0  0  0  0  0  0  0  0  0  0  0
   -3.6331  -16.3873    0.0000 C   0  0  0  0  0  0  0  0  0  0  0  0
   -2.9186  -15.1498    0.0000 O   0  0  0  0  0  0  0  0  0  0  0  0
   -2.9186  -16.7998    0.0000 C   0  0  0  0  0  0  0  0  0  0  0  0
   -2.9186  -17.6248    0.0000 C   0  0  0  0  0  0  0  0  0  0  0  0
   -3.6331  -18.0373    0.0000 C   0  0  0  0  0  0  0  0  0  0  0  0
   -4.3475  -17.6248    0.0000 C   0  0  0  0  0  0  0  0  0  0  0  0
   -4.3475  -16.7998    0.0000 C   0  0  0  0  0  0  0  0  0  0  0  0
   -3.6331  -18.8623    0.0000 C   0  0  0  0  0  0  0  0  0  0  0  0
   -3.6331  -19.6873    0.0000 N   0  0  0  0  0  0  0  0  0  0  0  0
   -2.5061  -13.3893    0.0000 O   0  0  0  0  0  0  0  0  0  0  0  0
   -1.2686  -14.1038    0.0000 O   0  0  0  0  0  0  0  0  0  0  0  0
   -1.6811  -13.3893    0.0000 C   0  0  0  0  0  0  0  0  0  0  0  0
   -1.2686  -12.6748    0.0000 C   0  0  0  0  0  0  0  0  0  0  0  0
   -3.3311  -10.5314    0.0000 C   0  0  0  0  0  0  0  0  0  0  0  0
   -4.1561  -10.5315    0.0000 O   0  0  0  0  0  0  0  0  0  0  0  0
   -2.9186   -9.8170    0.0000 C   0  0  0  0  0  0  0  0  0  0  0  0
   -5.0620  -11.4373    0.0000 C   0  0  0  0  0  0  0  0  0  0  0  0
   -5.0620  -10.6123    0.0000 O   0  0  0  0  0  0  0  0  0  0  0  0
   -4.3476  -11.8498    0.0000 C   0  0  0  0  0  0  0  0  0  0  0  0
  2  1  1  0  0  0  0
  2  3  1  0  0  0  0
  4  3  1  0  0  0  0
  5  4  1  0  0  0  0
  5  6  1  0  0  0  0
  6  1  1  6  0  0  0
  6  7  1  0  0  0  0
  5  8  1  0  0  0  0
  2  9  1  6  0  0  0
  9 10  1  4  0  0  0
  4 11  1  6  0  0  0
  7 12  1  1  0  0  0
  7 13  1  0  0  0  0
 13 14  4  0  0  0  0
 14 15  4  0  0  0  0
  8 14  1  0  0  0  0
  5 16  1  6  0  0  0
 15 17  4  0  0  0  0
 17 18  4  0  0  0  0
 18 19  4  0  0  0  0
 19 13  4  0  0  0  0
 19 20  2  0  0  0  0
 17 21  1  0  0  0  0
 21 22  4  0  0  0  0
 22 23  4  0  0  0  0
 23 24  4  0  0  0  0
 25 21  4  0  0  0  0
  9 27  1  0  0  0  0
 24 28  4  0  0  0  0
 28 25  4  0  0  0  0
 11 29  1  0  0  0  0
 29 30  1  0  0  0  0
 29 31  2  0  0  0  0
 30 32  4  0  0  0  0
 32 33  4  0  0  0  0
 33 34  4  0  0  0  0
 34 35  4  0  0  0  0
 35 36  4  0  0  0  0
 36 30  4  0  0  0  0
 34 37  1  0  0  0  0
 37 38  3  0  0  0  0
  9 39  1  0  0  0  0
 39 41  1  0  0  0  0
 40 41  2  0  0  0  0
 41 42  1  0  0  0  0
 10 26  1  0  0  0  0
 26 43  1  0  0  0  0
 43 45  1  0  0  0  0
 43 44  2  0  0  0  0
 12 46  1  0  0  0  0
 46 48  1  0  0  0  0
 46 47  2  0  0  0  0
M  END
> <From>
www.bindingDB.org

> <BindingDB Reactant_set_id>
765841

> <Ligand InChI>
InChI=1S/C35H34N2O11/c1-19(38)43-18-34(4,47-21(3)40)25-13-26-31(44-20(2)39)30-28(15-27(45-33(30)42)24-7-6-12-37-17-24)48-35(26,5)29(14-25)46-32(41)23-10-8-22(16-36)9-11-23/h6-12,15,17,25-26,29,31H,13-14,18H2,1-5H3/t25-,26-,29-,31-,34?,35-/m0/s1

> <Ligand InChI Key>
GYLPTMGETOHQBY-CFHZZZJMSA-N

> <BindingDB MonomerID>
383177

> <BindingDB Ligand Name>
US10278962, Compound 8

> <Target Name>
Sterol O-acyltransferase 2

> <Target Source Organism According to Curator or DataSource>


> <Ki (nM)>


> <IC50 (nM)>
 61.0

> <Kd (nM)>


> <EC50 (nM)>


> <kon (M-1-s-1)>


> <koff (s-1)>


> <pH>


> <Temp (C)>


> <Curation/DataSource>
US Patent

> <Article DOI>


> <BindingDB Entry DOI>
10.7270/Q2CF9SF8

> <PMID>


> <PubChem AID>
aid1798542

> <Patent Number>
US10278962

> <Authors>
Nan, F; Li, B; Zhan, Y; Zhang, X; Xiong, Y; Hu, X; Zhang, Y

> <Institution>
Shanghai Institute of Materia Medica, Chinese Academy of Sciences

> <Link to Ligand in BindingDB>
http://www.bindingdb.org/bind/chemsearch/marvin/MolStructure.jsp?monomerid=383177

> <Link to Target in BindingDB>
http://www.bindingdb.org/jsp/dbsearch/PrimarySearch_ki.jsp?energyterm=kJ/mole&tag=pol&polymerid=7773&target=Sterol+O-acyltransferase+2&column=ki&startPg=0&Increment=50&submit=Search

> <Link to Ligand-Target Pair in BindingDB>
http://www.bindingdb.org/jsp/dbsearch/PrimarySearch_ki.jsp?energyterm=kJ/mole&tag=r21&monomerid=383177&enzyme=Sterol+O-acyltransferase+2&column=ki&startPg=0&Increment=50&submit=Search

> <Ligand HET ID in PDB>


> <PDB ID(s) for Ligand-Target Complex>


> <PubChem CID>
145995622

> <PubChem SID>
404852472

> <ChEBI ID of Ligand>


> <ChEMBL ID of Ligand>


> <DrugBank ID of Ligand>


> <IUPHAR_GRAC ID of Ligand>


> <KEGG ID of Ligand>


> <ZINC ID of Ligand>


> <Number of Protein Chains in Target (>1 implies a multichain complex)>
1

> <BindingDB Target Chain Sequence>
MEPGGARLRLQRTEGLGGERERQPCGDGNTETHRAPDLVQWTRHMEAVKAQLLEQAQGQLRELLDRAMREAIQSYPSQDKPLPPPPPGSLSRTQEPSLGKQKVFIIRKSLLDELMEVQHFRTIYHMFIAGLCVFIISTLAIDFIDEGRLLLEFDLLIFSFGQLPLALVTWVPMFLSTLLAPYQALRLWARGTWTQATGLGCALLAAHAVVLCALPVHVAVEHQLPPASRCVLVFEQVRFLMKSYSFLREAVPGTLRARRGEGIQAPSFSSYLYFLFCPTLIYRETYPRTPYVRWNYVAKNFAQALGCVLYACFILGRLCVPVFANMSREPFSTRALVLSILHATLPGIFMLLLIFFAFLHCWLNAFAEMLRFGDRMFYRDWWNSTSFSNYYRTWNVVVHDWLYSYVYQDGLRLLGARARGVAMLGVFLVSAVAHEYIFCFVLGFFYPVMLILFLVIGGMLNFMMHDQRTGPAWNVLMWTMLFLGQGIQVSLYCQEWYARRHCPLPQATFWGLVTPRSWSCHT

> <PDB ID(s) of Target Chain>


> <UniProt (SwissProt) Recommended Name of Target Chain>
Sterol O-acyltransferase 2

> <UniProt (SwissProt) Entry Name of Target Chain>
ACAT-2

> <UniProt (SwissProt) Primary ID of Target Chain>
O75908

> <UniProt (SwissProt) Secondary ID(s) of Target Chain>
F5H7W4 I6L9H9 Q4VB99 Q4VBA1 Q96TD4 Q9UNR2

> <UniProt (SwissProt) Alternative ID(s) of Target Chain>


> <UniProt (TrEMBL) Submitted Name of Target Chain>


> <UniProt (TrEMBL) Entry Name of Target Chain>


> <UniProt (TrEMBL) Primary ID of Target Chain>


> <UniProt (TrEMBL) Secondary ID(s) of Target Chain>


> <UniProt (TrEMBL) Alternative ID(s) of Target Chain>


$$$$
00056001.cdx
  Mrv0541 12012113462D          

 32 35  0  0  0  0            999 V2000
   -2.8869    6.4411    0.0000 C   0  0  0  0  0  0  0  0  0  0  0  0
   -2.8869    5.6161    0.0000 C   0  0  2  0  0  0  0  0  0  0  0  0
   -2.1724    5.2036    0.0000 C   0  0  0  0  0  0  0  0  0  0  0  0
   -1.4580    5.6161    0.0000 C   0  0  2  0  0  0  0  0  0  0  0  0
   -1.4580    6.4411    0.0000 C   0  0  1  0  0  0  0  0  0  0  0  0
   -2.1725    6.8536    0.0000 C   0  0  1  0  0  0  0  0  0  0  0  0
   -2.1725    7.6786    0.0000 C   0  0  2  0  0  0  0  0  0  0  0  0
   -0.7435    6.8536    0.0000 O   0  0  0  0  0  0  0  0  0  0  0  0
   -3.6014    5.2036    0.0000 C   0  0  2  0  0  0  0  0  0  0  0  0
   -4.3159    5.6161    0.0000 C   0  0  0  0  0  0  0  0  0  0  0  0
   -3.6014    4.3786    0.0000 O   0  0  0  0  0  0  0  0  0  0  0  0
   -2.8870    8.0911    0.0000 O   0  0  0  0  0  0  0  0  0  0  0  0
   -1.4580    8.0911    0.0000 C   0  0  0  0  0  0  0  0  0  0  0  0
   -0.7435    7.6786    0.0000 C   0  0  0  0  0  0  0  0  0  0  0  0
   -0.0291    8.0911    0.0000 C   0  0  0  0  0  0  0  0  0  0  0  0
   -1.4580    7.2661    0.0000 C   0  0  0  0  0  0  0  0  0  0  0  0
   -0.0291    8.9161    0.0000 C   0  0  0  0  0  0  0  0  0  0  0  0
   -0.7435    9.3286    0.0000 O   0  0  0  0  0  0  0  0  0  0  0  0
   -1.4580    8.9161    0.0000 C   0  0  0  0  0  0  0  0  0  0  0  0
   -2.1725    9.3286    0.0000 O   0  0  0  0  0  0  0  0  0  0  0  0
    0.6854    9.3286    0.0000 C   0  0  0  0  0  0  0  0  0  0  0  0
    1.3999    8.9161    0.0000 C   0  0  0  0  0  0  0  0  0  0  0  0
    2.1143    9.3286    0.0000 N   0  0  0  0  0  0  0  0  0  0  0  0
    2.1143   10.1536    0.0000 C   0  0  0  0  0  0  0  0  0  0  0  0
    0.6854   10.1536    0.0000 C   0  0  0  0  0  0  0  0  0  0  0  0
    1.3954   10.5584    0.0000 C   0  0  0  0  0  0  0  0  0  0  0  0
   -5.0304    5.2036    0.0000 O   0  0  0  0  0  0  0  0  0  0  0  0
   -3.6014    6.0286    0.0000 C   0  0  0  0  0  0  0  0  0  0  0  0
   -0.7435    5.2036    0.0000 O   0  0  0  0  0  0  0  0  0  0  0  0
   -5.7449    5.6161    0.0000 C   0  0  0  0  0  0  0  0  0  0  0  0
   -6.4593    5.2036    0.0000 C   0  0  0  0  0  0  0  0  0  0  0  0
   -5.7448    6.4411    0.0000 O   0  0  0  0  0  0  0  0  0  0  0  0
  2  1  1  0  0  0  0
  2  3  1  0  0  0  0
  4  3  1  0  0  0  0
  5  4  1  0  0  0  0
  5  6  1  0  0  0  0
  6  1  1  6  0  0  0
  6  7  1  0  0  0  0
  5  8  1  0  0  0  0
  2  9  1  6  0  0  0
  9 10  1  1  0  0  0
  9 11  1  6  0  0  0
  7 12  1  6  0  0  0
  7 13  1  0  0  0  0
 13 14  4  0  0  0  0
 14 15  4  0  0  0  0
  8 14  1  0  0  0  0
  5 16  1  6  0  0  0
 15 17  4  0  0  0  0
 17 18  4  0  0  0  0
 18 19  4  0  0  0  0
 19 13  4  0  0  0  0
 19 20  2  0  0  0  0
 17 21  1  0  0  0  0
 21 22  4  0  0  0  0
 22 23  4  0  0  0  0
 23 24  4  0  0  0  0
 25 21  4  0  0  0  0
 24 26  4  0  0  0  0
 26 25  4  0  0  0  0
  9 28  1  0  0  0  0
  4 29  1  6  0  0  0
 10 27  1  0  0  0  0
 27 30  1  0  0  0  0
 30 31  1  0  0  0  0
 30 32  2  0  0  0  0
M  END
> <From>
www.bindingDB.org

> <BindingDB Reactant_set_id>
765836

> <Ligand InChI>
InChI=1S/C23H27NO8/c1-12(25)30-11-22(2,29)14-7-15-20(27)19-17(32-23(15,3)18(26)8-14)9-16(31-21(19)28)13-5-4-6-24-10-13/h4-6,9-10,14-15,18,20,26-27,29H,7-8,11H2,1-3H3/t14-,15-,18-,20+,22+,23-/m1/s1

> <Ligand InChI Key>
DAMNHPBVADWBQN-OWTHALGUSA-N

> <BindingDB MonomerID>
383186

> <BindingDB Ligand Name>
US10278962, Compound 27

> <Target Name>
Sterol O-acyltransferase 2

> <Target Source Organism According to Curator or DataSource>


> <Ki (nM)>


> <IC50 (nM)>
 69.0

> <Kd (nM)>


> <EC50 (nM)>


> <kon (M-1-s-1)>


> <koff (s-1)>


> <pH>


> <Temp (C)>


> <Curation/DataSource>
US Patent

> <Article DOI>


> <BindingDB Entry DOI>
10.7270/Q2CF9SF8

> <PMID>


> <PubChem AID>
aid1798542

> <Patent Number>
US10278962

> <Authors>
Nan, F; Li, B; Zhan, Y; Zhang, X; Xiong, Y; Hu, X; Zhang, Y

> <Institution>
Shanghai Institute of Materia Medica, Chinese Academy of Sciences

> <Link to Ligand in BindingDB>
http://www.bindingdb.org/bind/chemsearch/marvin/MolStructure.jsp?monomerid=383186

> <Link to Target in BindingDB>
http://www.bindingdb.org/jsp/dbsearch/PrimarySearch_ki.jsp?energyterm=kJ/mole&tag=pol&polymerid=7773&target=Sterol+O-acyltransferase+2&column=ki&startPg=0&Increment=50&submit=Search

> <Link to Ligand-Target Pair in BindingDB>
http://www.bindingdb.org/jsp/dbsearch/PrimarySearch_ki.jsp?energyterm=kJ/mole&tag=r21&monomerid=383186&enzyme=Sterol+O-acyltransferase+2&column=ki&startPg=0&Increment=50&submit=Search

> <Ligand HET ID in PDB>


> <PDB ID(s) for Ligand-Target Complex>


> <PubChem CID>
134312913

> <PubChem SID>
404852480

> <ChEBI ID of Ligand>


> <ChEMBL ID of Ligand>


> <DrugBank ID of Ligand>


> <IUPHAR_GRAC ID of Ligand>


> <KEGG ID of Ligand>


> <ZINC ID of Ligand>


> <Number of Protein Chains in Target (>1 implies a multichain complex)>
1

> <BindingDB Target Chain Sequence>
MEPGGARLRLQRTEGLGGERERQPCGDGNTETHRAPDLVQWTRHMEAVKAQLLEQAQGQLRELLDRAMREAIQSYPSQDKPLPPPPPGSLSRTQEPSLGKQKVFIIRKSLLDELMEVQHFRTIYHMFIAGLCVFIISTLAIDFIDEGRLLLEFDLLIFSFGQLPLALVTWVPMFLSTLLAPYQALRLWARGTWTQATGLGCALLAAHAVVLCALPVHVAVEHQLPPASRCVLVFEQVRFLMKSYSFLREAVPGTLRARRGEGIQAPSFSSYLYFLFCPTLIYRETYPRTPYVRWNYVAKNFAQALGCVLYACFILGRLCVPVFANMSREPFSTRALVLSILHATLPGIFMLLLIFFAFLHCWLNAFAEMLRFGDRMFYRDWWNSTSFSNYYRTWNVVVHDWLYSYVYQDGLRLLGARARGVAMLGVFLVSAVAHEYIFCFVLGFFYPVMLILFLVIGGMLNFMMHDQRTGPAWNVLMWTMLFLGQGIQVSLYCQEWYARRHCPLPQATFWGLVTPRSWSCHT

> <PDB ID(s) of Target Chain>


> <UniProt (SwissProt) Recommended Name of Target Chain>
Sterol O-acyltransferase 2

> <UniProt (SwissProt) Entry Name of Target Chain>
ACAT-2

> <UniProt (SwissProt) Primary ID of Target Chain>
O75908

> <UniProt (SwissProt) Secondary ID(s) of Target Chain>
F5H7W4 I6L9H9 Q4VB99 Q4VBA1 Q96TD4 Q9UNR2

> <UniProt (SwissProt) Alternative ID(s) of Target Chain>


> <UniProt (TrEMBL) Submitted Name of Target Chain>


> <UniProt (TrEMBL) Entry Name of Target Chain>


> <UniProt (TrEMBL) Primary ID of Target Chain>


> <UniProt (TrEMBL) Secondary ID(s) of Target Chain>


> <UniProt (TrEMBL) Alternative ID(s) of Target Chain>


$$$$

  Mrv0541 11241418062D          

 50 57  0  0  0  0            999 V2000
    1.6932   -4.2788    0.0000 C   0  0  0  0  0  0  0  0  0  0  0  0
    2.4058   -3.8618    0.0000 C   0  0  0  0  0  0  0  0  0  0  0  0
    3.1185   -4.2788    0.0000 C   0  0  1  0  0  0  0  0  0  0  0  0
    3.1196   -5.1045    0.0000 C   0  0  1  0  0  0  0  0  0  0  0  0
    3.8313   -5.5143    0.0000 C   0  0  0  0  0  0  0  0  0  0  0  0
    4.5465   -5.1027    0.0000 C   0  0  1  0  0  0  0  0  0  0  0  0
    3.8291   -3.8628    0.0000 C   0  0  2  0  0  0  0  0  0  0  0  0
    4.5410   -4.2793    0.0000 C   0  0  2  0  0  0  0  0  0  0  0  0
    5.2538   -3.8733    0.0000 O   0  0  0  0  0  0  0  0  0  0  0  0
    3.8299   -3.0402    0.0000 C   0  0  2  0  0  0  0  0  0  0  0  0
    2.4058   -5.5133    0.0000 C   0  0  1  0  0  0  0  0  0  0  0  0
    1.6932   -5.1045    0.0000 C   0  0  1  0  0  0  0  0  0  0  0  0
    0.9868   -5.5151    0.0000 O   0  0  0  0  0  0  0  0  0  0  0  0
    0.9869   -6.3361    0.0000 C   0  0  1  0  0  0  0  0  0  0  0  0
    1.6996   -6.7447    0.0000 O   0  0  0  0  0  0  0  0  0  0  0  0
    2.4122   -6.3325    0.0000 C   0  0  0  0  0  0  0  0  0  0  0  0
    4.5489   -2.6325    0.0000 C   0  0  0  0  0  0  0  0  0  0  0  0
    5.2592   -3.0507    0.0000 C   0  0  0  0  0  0  0  0  0  0  0  0
    5.9725   -2.6467    0.0000 C   0  0  0  0  0  0  0  0  0  0  0  0
    5.9817   -1.8232    0.0000 C   0  0  0  0  0  0  0  0  0  0  0  0
    5.2714   -1.4050    0.0000 O   0  0  0  0  0  0  0  0  0  0  0  0
    4.5518   -1.8105    0.0000 C   0  0  0  0  0  0  0  0  0  0  0  0
    3.8396   -1.3927    0.0000 O   0  0  0  0  0  0  0  0  0  0  0  0
    3.1167   -2.6242    0.0000 O   0  0  0  0  0  0  0  0  0  0  0  0
    4.5332   -3.4530    0.0000 C   0  0  0  0  0  0  0  0  0  0  0  0
    5.2626   -5.5138    0.0000 O   0  0  0  0  0  0  0  0  0  0  0  0
    3.1111   -3.4530    0.0000 C   0  0  0  0  0  0  0  0  0  0  0  0
    2.3980   -4.6875    0.0000 C   0  0  0  0  0  0  0  0  0  0  0  0
    5.9767   -5.0992    0.0000 C   0  0  0  0  0  0  0  0  0  0  0  0
    6.6928   -5.5102    0.0000 C   0  0  0  0  0  0  0  0  0  0  0  0
    5.9745   -4.2734    0.0000 O   0  0  0  0  0  0  0  0  0  0  0  0
    6.6928   -6.3359    0.0000 C   0  0  0  0  0  0  0  0  0  0  0  0
    7.4081   -6.7469    0.0000 C   0  0  0  0  0  0  0  0  0  0  0  0
    8.1232   -6.3321    0.0000 C   0  0  0  0  0  0  0  0  0  0  0  0
    8.1184   -5.5021    0.0000 C   0  0  0  0  0  0  0  0  0  0  0  0
    7.4025   -5.0949    0.0000 C   0  0  0  0  0  0  0  0  0  0  0  0
    6.7012   -1.4180    0.0000 C   0  0  0  0  0  0  0  0  0  0  0  0
    7.4125   -1.8394    0.0000 C   0  0  0  0  0  0  0  0  0  0  0  0
    8.1311   -1.4342    0.0000 N   0  0  0  0  0  0  0  0  0  0  0  0
    8.1395   -0.6077    0.0000 C   0  0  0  0  0  0  0  0  0  0  0  0
    7.4235   -0.1880    0.0000 C   0  0  0  0  0  0  0  0  0  0  0  0
    6.7078   -0.5956    0.0000 C   0  0  0  0  0  0  0  0  0  0  0  0
    7.4098   -7.5727    0.0000 O   0  0  0  0  0  0  0  0  0  0  0  0
    6.6955   -7.9870    0.0000 C   0  0  0  0  0  0  0  0  0  0  0  0
    0.2724   -6.7486    0.0000 C   0  0  0  0  0  0  0  0  0  0  0  0
   -0.4420   -6.3361    0.0000 C   0  0  0  0  0  0  0  0  0  0  0  0
   -1.1565   -6.7486    0.0000 C   0  0  0  0  0  0  0  0  0  0  0  0
   -1.1565   -7.5736    0.0000 C   0  0  0  0  0  0  0  0  0  0  0  0
   -0.4420   -7.9861    0.0000 C   0  0  0  0  0  0  0  0  0  0  0  0
    0.2724   -7.5736    0.0000 C   0  0  0  0  0  0  0  0  0  0  0  0
 12  1  1  0  0  0  0
  1  2  1  0  0  0  0
  4 11  1  0  0  0  0
  3  2  1  0  0  0  0
  3  4  1  0  0  0  0
  7  3  1  1  0  0  0
  4  5  1  1  0  0  0
  6  5  1  0  0  0  0
  8  6  1  0  0  0  0
  7  8  1  0  0  0  0
  7 10  1  0  0  0  0
  8  9  1  0  0  0  0
  9 18  1  0  0  0  0
 10 17  1  0  0  0  0
 11 12  1  0  0  0  0
 11 16  1  0  0  0  0
 12 13  1  1  0  0  0
 14 13  1  0  0  0  0
 14 15  1  0  0  0  0
 15 16  1  0  0  0  0
 17 18  2  0  0  0  0
 17 22  1  0  0  0  0
 18 19  1  0  0  0  0
 19 20  2  0  0  0  0
 20 21  1  0  0  0  0
 21 22  1  0  0  0  0
 22 23  2  0  0  0  0
 10 24  1  1  0  0  0
  8 25  1  1  0  0  0
  6 26  1  1  0  0  0
  3 27  1  1  0  0  0
 11 28  1  1  0  0  0
 26 29  1  0  0  0  0
 29 30  1  0  0  0  0
 29 31  2  0  0  0  0
 30 32  2  0  0  0  0
 32 33  1  0  0  0  0
 33 34  2  0  0  0  0
 34 35  1  0  0  0  0
 35 36  2  0  0  0  0
 36 30  1  0  0  0  0
 37 38  2  0  0  0  0
 38 39  1  0  0  0  0
 39 40  2  0  0  0  0
 40 41  1  0  0  0  0
 41 42  2  0  0  0  0
 42 37  1  0  0  0  0
 20 37  1  0  0  0  0
 33 43  1  0  0  0  0
 43 44  1  0  0  0  0
 14 45  1  1  0  0  0
 50 45  2  0  0  0  0
 46 45  1  0  0  0  0
 46 47  2  0  0  0  0
 47 48  1  0  0  0  0
 48 49  2  0  0  0  0
 49 50  1  0  0  0  0
M  END
> <From>
www.bindingDB.org

> <BindingDB Reactant_set_id>
51068419

> <Ligand InChI>
InChI=1S/C40H41NO9/c1-38-16-15-30-39(2,22-46-37(49-30)23-10-6-5-7-11-23)29(38)20-31(48-35(43)24-12-8-14-26(18-24)45-4)40(3)34(38)33(42)32-28(50-40)19-27(47-36(32)44)25-13-9-17-41-21-25/h5-14,17-19,21,29-31,33-34,37,42H,15-16,20,22H2,1-4H3/t29-,30+,31+,33+,34-,37-,38+,39+,40-/m1/s1

> <Ligand InChI Key>
NZIPIQCOKRVVHS-WVGFPPCDSA-N

> <BindingDB MonomerID>
50436332

> <BindingDB Ligand Name>
CHEMBL2398800

> <Target Name>
Sterol O-acyltransferase 2

> <Target Source Organism According to Curator or DataSource>


> <Ki (nM)>


> <IC50 (nM)>
 70

> <Kd (nM)>


> <EC50 (nM)>


> <kon (M-1-s-1)>


> <koff (s-1)>


> <pH>


> <Temp (C)>


> <Curation/DataSource>
ChEMBL

> <Article DOI>
10.1016/j.bmcl.2013.04.075

> <BindingDB Entry DOI>
10.7270/Q2WD41Z9

> <PMID>
23711919

> <PubChem AID>


> <Patent Number>


> <Authors>
Ohtawa, M; Yamazaki, H; Ohte, S; Matsuda, D; Ohshiro, T; Rudel, LL; Omura, S; Tomoda, H; Nagamitsu, T

> <Institution>
Kitasato University

> <Link to Ligand in BindingDB>
http://www.bindingdb.org/bind/chemsearch/marvin/MolStructure.jsp?monomerid=50436332

> <Link to Target in BindingDB>
http://www.bindingdb.org/jsp/dbsearch/PrimarySearch_ki.jsp?energyterm=kJ/mole&tag=pol&polymerid=7773&target=Sterol+O-acyltransferase+2&column=ki&startPg=0&Increment=50&submit=Search

> <Link to Ligand-Target Pair in BindingDB>
http://www.bindingdb.org/jsp/dbsearch/PrimarySearch_ki.jsp?energyterm=kJ/mole&tag=r21&monomerid=50436332&enzyme=Sterol+O-acyltransferase+2&column=ki&startPg=0&Increment=50&submit=Search

> <Ligand HET ID in PDB>


> <PDB ID(s) for Ligand-Target Complex>


> <PubChem CID>
71682504

> <PubChem SID>
175448649

> <ChEBI ID of Ligand>


> <ChEMBL ID of Ligand>
CHEMBL2398800

> <DrugBank ID of Ligand>


> <IUPHAR_GRAC ID of Ligand>


> <KEGG ID of Ligand>


> <ZINC ID of Ligand>
ZINC96272245

> <Number of Protein Chains in Target (>1 implies a multichain complex)>
1

> <BindingDB Target Chain Sequence>
MEPGGARLRLQRTEGLGGERERQPCGDGNTETHRAPDLVQWTRHMEAVKAQLLEQAQGQLRELLDRAMREAIQSYPSQDKPLPPPPPGSLSRTQEPSLGKQKVFIIRKSLLDELMEVQHFRTIYHMFIAGLCVFIISTLAIDFIDEGRLLLEFDLLIFSFGQLPLALVTWVPMFLSTLLAPYQALRLWARGTWTQATGLGCALLAAHAVVLCALPVHVAVEHQLPPASRCVLVFEQVRFLMKSYSFLREAVPGTLRARRGEGIQAPSFSSYLYFLFCPTLIYRETYPRTPYVRWNYVAKNFAQALGCVLYACFILGRLCVPVFANMSREPFSTRALVLSILHATLPGIFMLLLIFFAFLHCWLNAFAEMLRFGDRMFYRDWWNSTSFSNYYRTWNVVVHDWLYSYVYQDGLRLLGARARGVAMLGVFLVSAVAHEYIFCFVLGFFYPVMLILFLVIGGMLNFMMHDQRTGPAWNVLMWTMLFLGQGIQVSLYCQEWYARRHCPLPQATFWGLVTPRSWSCHT

> <PDB ID(s) of Target Chain>


> <UniProt (SwissProt) Recommended Name of Target Chain>
Sterol O-acyltransferase 2

> <UniProt (SwissProt) Entry Name of Target Chain>
ACAT-2

> <UniProt (SwissProt) Primary ID of Target Chain>
O75908

> <UniProt (SwissProt) Secondary ID(s) of Target Chain>
F5H7W4 I6L9H9 Q4VB99 Q4VBA1 Q96TD4 Q9UNR2

> <UniProt (SwissProt) Alternative ID(s) of Target Chain>


> <UniProt (TrEMBL) Submitted Name of Target Chain>


> <UniProt (TrEMBL) Entry Name of Target Chain>


> <UniProt (TrEMBL) Primary ID of Target Chain>


> <UniProt (TrEMBL) Secondary ID(s) of Target Chain>


> <UniProt (TrEMBL) Alternative ID(s) of Target Chain>


$$$$

  Mrv0541 11211416152D          

 42 46  0  0  0  0            999 V2000
    1.3321   -0.8938    0.0000 C   0  0  0  0  0  0  0  0  0  0  0  0
    0.5071    0.5285    0.0000 C   0  0  0  0  0  0  0  0  0  0  0  0
    0.0946   -0.1848    0.0000 C   0  0  0  0  0  0  0  0  0  0  0  0
   -0.7304   -0.1848    0.0000 C   0  0  0  0  0  0  0  0  0  0  0  0
    1.7446   -0.1848    0.0000 C   0  0  0  0  0  0  0  0  0  0  0  0
    0.5071   -0.8938    0.0000 C   0  0  0  0  0  0  0  0  0  0  0  0
   -1.1429    0.5285    0.0000 C   0  0  0  0  0  0  0  0  0  0  0  0
    1.7446   -1.6157    0.0000 C   0  0  0  0  0  0  0  0  0  0  0  0
    0.0946    1.2461    0.0000 C   0  0  0  0  0  0  0  0  0  0  0  0
    1.3321    0.5285    0.0000 O   0  0  0  0  0  0  0  0  0  0  0  0
   -1.9679    0.5285    0.0000 C   0  0  0  0  0  0  0  0  0  0  0  0
   -0.7304    1.2461    0.0000 C   0  0  0  0  0  0  0  0  0  0  0  0
    2.5696   -0.1848    0.0000 C   0  0  0  0  0  0  0  0  0  0  0  0
    2.5696   -1.6157    0.0000 O   0  0  0  0  0  0  0  0  0  0  0  0
    2.9821   -0.8938    0.0000 C   0  0  0  0  0  0  0  0  0  0  0  0
   -2.3804   -0.1848    0.0000 C   0  0  0  0  0  0  0  0  0  0  0  0
   -1.1429   -0.8938    0.0000 C   0  0  0  0  0  0  0  0  0  0  0  0
    0.5071    1.9679    0.0000 O   0  0  0  0  0  0  0  0  0  0  0  0
   -2.7414    0.8121    0.0000 C   0  0  0  0  0  0  0  0  0  0  0  0
   -3.2054   -0.1848    0.0000 O   0  0  0  0  0  0  0  0  0  0  0  0
    0.0946    2.6769    0.0000 C   0  0  0  0  0  0  0  0  0  0  0  0
   -3.6179   -0.8938    0.0000 C   0  0  0  0  0  0  0  0  0  0  0  0
    1.3321   -2.3246    0.0000 O   0  0  0  0  0  0  0  0  0  0  0  0
    3.8071   -0.8938    0.0000 C   0  0  0  0  0  0  0  0  0  0  0  0
   -4.1593    0.5672    0.0000 C   0  0  0  0  0  0  0  0  0  0  0  0
   -1.9679   -0.8938    0.0000 C   0  0  0  0  0  0  0  0  0  0  0  0
   -3.3859    0.2836    0.0000 O   0  0  0  0  0  0  0  0  0  0  0  0
    0.0946   -1.6157    0.0000 O   0  0  0  0  0  0  0  0  0  0  0  0
    5.0446   -1.6157    0.0000 N   0  0  0  0  0  0  0  0  0  0  0  0
    0.5071    3.3988    0.0000 O   0  0  0  0  0  0  0  0  0  0  0  0
   -4.4429   -0.8938    0.0000 O   0  0  0  0  0  0  0  0  0  0  0  0
   -4.7910    0.0343    0.0000 O   0  0  0  0  0  0  0  0  0  0  0  0
    0.6489    1.3492    0.0000 C   0  0  0  0  0  0  0  0  0  0  0  0
   -0.2277    0.5285    0.0000 C   0  0  0  0  0  0  0  0  0  0  0  0
   -1.8261    1.3492    0.0000 C   0  0  0  0  0  0  0  0  0  0  0  0
    4.2196   -1.6157    0.0000 C   0  0  0  0  0  0  0  0  0  0  0  0
    4.2196   -0.1848    0.0000 C   0  0  0  0  0  0  0  0  0  0  0  0
   -0.7304    2.6769    0.0000 C   0  0  0  0  0  0  0  0  0  0  0  0
   -3.2054   -1.6157    0.0000 C   0  0  0  0  0  0  0  0  0  0  0  0
   -4.3011    1.3793    0.0000 C   0  0  0  0  0  0  0  0  0  0  0  0
    5.4571   -0.8938    0.0000 C   0  0  0  0  0  0  0  0  0  0  0  0
    5.0446   -0.1848    0.0000 C   0  0  0  0  0  0  0  0  0  0  0  0
  2  3  1  0  0  0  0
  3  6  1  0  0  0  0
  4  3  1  0  0  0  0
  5  1  2  0  0  0  0
  6  1  1  0  0  0  0
  7  4  1  0  0  0  0
  8  1  1  0  0  0  0
  9  2  1  0  0  0  0
 10  5  1  0  0  0  0
 11  7  1  0  0  0  0
 12  7  1  0  0  0  0
 13  5  1  0  0  0  0
 14  8  1  0  0  0  0
 15 14  1  0  0  0  0
 16 26  1  0  0  0  0
 17  4  1  0  0  0  0
 18  9  1  0  0  0  0
 19 11  1  0  0  0  0
 20 16  1  0  0  0  0
 21 18  1  0  0  0  0
 22 20  1  0  0  0  0
 23  8  2  0  0  0  0
 24 15  1  0  0  0  0
 25 27  1  0  0  0  0
 26 17  1  0  0  0  0
 27 19  1  0  0  0  0
 28  6  2  0  0  0  0
 29 36  1  0  0  0  0
 30 21  2  0  0  0  0
 31 22  2  0  0  0  0
 32 25  2  0  0  0  0
 33  2  1  0  0  0  0
 34  4  1  0  0  0  0
 35 11  1  0  0  0  0
 36 24  2  0  0  0  0
 37 24  1  0  0  0  0
 38 21  1  0  0  0  0
 39 22  1  0  0  0  0
 40 25  1  0  0  0  0
 41 42  1  0  0  0  0
 42 37  2  0  0  0  0
  2 10  1  0  0  0  0
 15 13  1  0  0  0  0
  9 12  2  0  0  0  0
 16 11  1  0  0  0  0
 41 29  2  0  0  0  0
M  END
> <From>
www.bindingDB.org

> <BindingDB Reactant_set_id>
51068418

> <Ligand InChI>
InChI=1S/C31H35NO10/c1-16(33)38-15-30(5)22-13-24(40-18(3)35)31(6)27(29(22,4)10-9-23(30)39-17(2)34)26(36)25-21(42-31)12-20(41-28(25)37)19-8-7-11-32-14-19/h7-8,11,13-14,20,22-23,27H,9-10,12,15H2,1-6H3

> <Ligand InChI Key>
YYASCVQZXHMNRN-UHFFFAOYSA-N

> <BindingDB MonomerID>
50150482

> <BindingDB Ligand Name>
Acetic acid 3-acetoxy-4-acetoxymethyl-12-hydroxy-4,6a,12b-trimethyl-11-oxo-9-pyridin-3-yl-1,3,4,4a,6a,11,12a,12b-octahydro-2H,9H-7,10-dioxa-benzo[a]anthracen-6-yl ester::CHEMBL179229

> <Target Name>
Sterol O-acyltransferase 2

> <Target Source Organism According to Curator or DataSource>


> <Ki (nM)>


> <IC50 (nM)>
 70

> <Kd (nM)>


> <EC50 (nM)>


> <kon (M-1-s-1)>


> <koff (s-1)>


> <pH>


> <Temp (C)>


> <Curation/DataSource>
ChEMBL

> <Article DOI>
10.1016/j.bmcl.2013.04.075

> <BindingDB Entry DOI>
10.7270/Q2WD41Z9

> <PMID>
23711919

> <PubChem AID>


> <Patent Number>


> <Authors>
Ohtawa, M; Yamazaki, H; Ohte, S; Matsuda, D; Ohshiro, T; Rudel, LL; Omura, S; Tomoda, H; Nagamitsu, T

> <Institution>
Kitasato University

> <Link to Ligand in BindingDB>
http://www.bindingdb.org/bind/chemsearch/marvin/MolStructure.jsp?monomerid=50150482

> <Link to Target in BindingDB>
http://www.bindingdb.org/jsp/dbsearch/PrimarySearch_ki.jsp?energyterm=kJ/mole&tag=pol&polymerid=7773&target=Sterol+O-acyltransferase+2&column=ki&startPg=0&Increment=50&submit=Search

> <Link to Ligand-Target Pair in BindingDB>
http://www.bindingdb.org/jsp/dbsearch/PrimarySearch_ki.jsp?energyterm=kJ/mole&tag=r21&monomerid=50150482&enzyme=Sterol+O-acyltransferase+2&column=ki&startPg=0&Increment=50&submit=Search

> <Ligand HET ID in PDB>


> <PDB ID(s) for Ligand-Target Complex>


> <PubChem CID>
91933028

> <PubChem SID>
104038907

> <ChEBI ID of Ligand>


> <ChEMBL ID of Ligand>
CHEMBL179229

> <DrugBank ID of Ligand>


> <IUPHAR_GRAC ID of Ligand>


> <KEGG ID of Ligand>


> <ZINC ID of Ligand>
ZINC55652540

> <Number of Protein Chains in Target (>1 implies a multichain complex)>
1

> <BindingDB Target Chain Sequence>
MEPGGARLRLQRTEGLGGERERQPCGDGNTETHRAPDLVQWTRHMEAVKAQLLEQAQGQLRELLDRAMREAIQSYPSQDKPLPPPPPGSLSRTQEPSLGKQKVFIIRKSLLDELMEVQHFRTIYHMFIAGLCVFIISTLAIDFIDEGRLLLEFDLLIFSFGQLPLALVTWVPMFLSTLLAPYQALRLWARGTWTQATGLGCALLAAHAVVLCALPVHVAVEHQLPPASRCVLVFEQVRFLMKSYSFLREAVPGTLRARRGEGIQAPSFSSYLYFLFCPTLIYRETYPRTPYVRWNYVAKNFAQALGCVLYACFILGRLCVPVFANMSREPFSTRALVLSILHATLPGIFMLLLIFFAFLHCWLNAFAEMLRFGDRMFYRDWWNSTSFSNYYRTWNVVVHDWLYSYVYQDGLRLLGARARGVAMLGVFLVSAVAHEYIFCFVLGFFYPVMLILFLVIGGMLNFMMHDQRTGPAWNVLMWTMLFLGQGIQVSLYCQEWYARRHCPLPQATFWGLVTPRSWSCHT

> <PDB ID(s) of Target Chain>


> <UniProt (SwissProt) Recommended Name of Target Chain>
Sterol O-acyltransferase 2

> <UniProt (SwissProt) Entry Name of Target Chain>
ACAT-2

> <UniProt (SwissProt) Primary ID of Target Chain>
O75908

> <UniProt (SwissProt) Secondary ID(s) of Target Chain>
F5H7W4 I6L9H9 Q4VB99 Q4VBA1 Q96TD4 Q9UNR2

> <UniProt (SwissProt) Alternative ID(s) of Target Chain>


> <UniProt (TrEMBL) Submitted Name of Target Chain>


> <UniProt (TrEMBL) Entry Name of Target Chain>


> <UniProt (TrEMBL) Primary ID of Target Chain>


> <UniProt (TrEMBL) Secondary ID(s) of Target Chain>


> <UniProt (TrEMBL) Alternative ID(s) of Target Chain>


$$$$

  Mrv0541 11211416152D          

 42 46  0  0  0  0            999 V2000
    1.3321   -0.8938    0.0000 C   0  0  0  0  0  0  0  0  0  0  0  0
    0.5071    0.5285    0.0000 C   0  0  0  0  0  0  0  0  0  0  0  0
    0.0946   -0.1848    0.0000 C   0  0  0  0  0  0  0  0  0  0  0  0
   -0.7304   -0.1848    0.0000 C   0  0  0  0  0  0  0  0  0  0  0  0
    1.7446   -0.1848    0.0000 C   0  0  0  0  0  0  0  0  0  0  0  0
    0.5071   -0.8938    0.0000 C   0  0  0  0  0  0  0  0  0  0  0  0
   -1.1429    0.5285    0.0000 C   0  0  0  0  0  0  0  0  0  0  0  0
    1.7446   -1.6157    0.0000 C   0  0  0  0  0  0  0  0  0  0  0  0
    0.0946    1.2461    0.0000 C   0  0  0  0  0  0  0  0  0  0  0  0
    1.3321    0.5285    0.0000 O   0  0  0  0  0  0  0  0  0  0  0  0
   -1.9679    0.5285    0.0000 C   0  0  0  0  0  0  0  0  0  0  0  0
   -0.7304    1.2461    0.0000 C   0  0  0  0  0  0  0  0  0  0  0  0
    2.5696   -0.1848    0.0000 C   0  0  0  0  0  0  0  0  0  0  0  0
    2.5696   -1.6157    0.0000 O   0  0  0  0  0  0  0  0  0  0  0  0
    2.9821   -0.8938    0.0000 C   0  0  0  0  0  0  0  0  0  0  0  0
   -2.3804   -0.1848    0.0000 C   0  0  0  0  0  0  0  0  0  0  0  0
   -1.1429   -0.8938    0.0000 C   0  0  0  0  0  0  0  0  0  0  0  0
    0.5071    1.9679    0.0000 O   0  0  0  0  0  0  0  0  0  0  0  0
   -2.7414    0.8121    0.0000 C   0  0  0  0  0  0  0  0  0  0  0  0
   -3.2054   -0.1848    0.0000 O   0  0  0  0  0  0  0  0  0  0  0  0
    0.0946    2.6769    0.0000 C   0  0  0  0  0  0  0  0  0  0  0  0
   -3.6179   -0.8938    0.0000 C   0  0  0  0  0  0  0  0  0  0  0  0
    1.3321   -2.3246    0.0000 O   0  0  0  0  0  0  0  0  0  0  0  0
    3.8071   -0.8938    0.0000 C   0  0  0  0  0  0  0  0  0  0  0  0
   -4.1593    0.5672    0.0000 C   0  0  0  0  0  0  0  0  0  0  0  0
   -1.9679   -0.8938    0.0000 C   0  0  0  0  0  0  0  0  0  0  0  0
   -3.3859    0.2836    0.0000 O   0  0  0  0  0  0  0  0  0  0  0  0
    0.0946   -1.6157    0.0000 O   0  0  0  0  0  0  0  0  0  0  0  0
    5.0446   -1.6157    0.0000 N   0  0  0  0  0  0  0  0  0  0  0  0
    0.5071    3.3988    0.0000 O   0  0  0  0  0  0  0  0  0  0  0  0
   -4.4429   -0.8938    0.0000 O   0  0  0  0  0  0  0  0  0  0  0  0
   -4.7910    0.0343    0.0000 O   0  0  0  0  0  0  0  0  0  0  0  0
    0.6489    1.3492    0.0000 C   0  0  0  0  0  0  0  0  0  0  0  0
   -0.2277    0.5285    0.0000 C   0  0  0  0  0  0  0  0  0  0  0  0
   -1.8261    1.3492    0.0000 C   0  0  0  0  0  0  0  0  0  0  0  0
    4.2196   -1.6157    0.0000 C   0  0  0  0  0  0  0  0  0  0  0  0
    4.2196   -0.1848    0.0000 C   0  0  0  0  0  0  0  0  0  0  0  0
   -0.7304    2.6769    0.0000 C   0  0  0  0  0  0  0  0  0  0  0  0
   -3.2054   -1.6157    0.0000 C   0  0  0  0  0  0  0  0  0  0  0  0
   -4.3011    1.3793    0.0000 C   0  0  0  0  0  0  0  0  0  0  0  0
    5.4571   -0.8938    0.0000 C   0  0  0  0  0  0  0  0  0  0  0  0
    5.0446   -0.1848    0.0000 C   0  0  0  0  0  0  0  0  0  0  0  0
  2  3  1  0  0  0  0
  3  6  1  0  0  0  0
  4  3  1  0  0  0  0
  5  1  2  0  0  0  0
  6  1  1  0  0  0  0
  7  4  1  0  0  0  0
  8  1  1  0  0  0  0
  9  2  1  0  0  0  0
 10  5  1  0  0  0  0
 11  7  1  0  0  0  0
 12  7  1  0  0  0  0
 13  5  1  0  0  0  0
 14  8  1  0  0  0  0
 15 14  1  0  0  0  0
 16 26  1  0  0  0  0
 17  4  1  0  0  0  0
 18  9  1  0  0  0  0
 19 11  1  0  0  0  0
 20 16  1  0  0  0  0
 21 18  1  0  0  0  0
 22 20  1  0  0  0  0
 23  8  2  0  0  0  0
 24 15  1  0  0  0  0
 25 27  1  0  0  0  0
 26 17  1  0  0  0  0
 27 19  1  0  0  0  0
 28  6  2  0  0  0  0
 29 36  1  0  0  0  0
 30 21  2  0  0  0  0
 31 22  2  0  0  0  0
 32 25  2  0  0  0  0
 33  2  1  0  0  0  0
 34  4  1  0  0  0  0
 35 11  1  0  0  0  0
 36 24  2  0  0  0  0
 37 24  1  0  0  0  0
 38 21  1  0  0  0  0
 39 22  1  0  0  0  0
 40 25  1  0  0  0  0
 41 42  1  0  0  0  0
 42 37  2  0  0  0  0
  2 10  1  0  0  0  0
 15 13  1  0  0  0  0
  9 12  2  0  0  0  0
 16 11  1  0  0  0  0
 41 29  2  0  0  0  0
M  END
> <From>
www.bindingDB.org

> <BindingDB Reactant_set_id>
51053296

> <Ligand InChI>
InChI=1S/C31H35NO10/c1-16(33)38-15-30(5)22-13-24(40-18(3)35)31(6)27(29(22,4)10-9-23(30)39-17(2)34)26(36)25-21(42-31)12-20(41-28(25)37)19-8-7-11-32-14-19/h7-8,11,13-14,20,22-23,27H,9-10,12,15H2,1-6H3

> <Ligand InChI Key>
YYASCVQZXHMNRN-UHFFFAOYSA-N

> <BindingDB MonomerID>
50150482

> <BindingDB Ligand Name>
Acetic acid 3-acetoxy-4-acetoxymethyl-12-hydroxy-4,6a,12b-trimethyl-11-oxo-9-pyridin-3-yl-1,3,4,4a,6a,11,12a,12b-octahydro-2H,9H-7,10-dioxa-benzo[a]anthracen-6-yl ester::CHEMBL179229

> <Target Name>
Sterol O-acyltransferase 2

> <Target Source Organism According to Curator or DataSource>


> <Ki (nM)>


> <IC50 (nM)>
 70

> <Kd (nM)>


> <EC50 (nM)>


> <kon (M-1-s-1)>


> <koff (s-1)>


> <pH>


> <Temp (C)>


> <Curation/DataSource>
ChEMBL

> <Article DOI>
10.1016/j.bmcl.2012.12.099

> <BindingDB Entry DOI>
10.7270/Q2P270HW

> <PMID>
23369538

> <PubChem AID>


> <Patent Number>


> <Authors>
Ohtawa, M; Yamazaki, H; Ohte, S; Matsuda, D; Ohshiro, T; Rudel, LL; Omura, S; Tomoda, H; Nagamitsu, T

> <Institution>
Kitasato University

> <Link to Ligand in BindingDB>
http://www.bindingdb.org/bind/chemsearch/marvin/MolStructure.jsp?monomerid=50150482

> <Link to Target in BindingDB>
http://www.bindingdb.org/jsp/dbsearch/PrimarySearch_ki.jsp?energyterm=kJ/mole&tag=pol&polymerid=7773&target=Sterol+O-acyltransferase+2&column=ki&startPg=0&Increment=50&submit=Search

> <Link to Ligand-Target Pair in BindingDB>
http://www.bindingdb.org/jsp/dbsearch/PrimarySearch_ki.jsp?energyterm=kJ/mole&tag=r21&monomerid=50150482&enzyme=Sterol+O-acyltransferase+2&column=ki&startPg=0&Increment=50&submit=Search

> <Ligand HET ID in PDB>


> <PDB ID(s) for Ligand-Target Complex>


> <PubChem CID>
91933028

> <PubChem SID>
104038907

> <ChEBI ID of Ligand>


> <ChEMBL ID of Ligand>
CHEMBL179229

> <DrugBank ID of Ligand>


> <IUPHAR_GRAC ID of Ligand>


> <KEGG ID of Ligand>


> <ZINC ID of Ligand>
ZINC55652540

> <Number of Protein Chains in Target (>1 implies a multichain complex)>
1

> <BindingDB Target Chain Sequence>
MEPGGARLRLQRTEGLGGERERQPCGDGNTETHRAPDLVQWTRHMEAVKAQLLEQAQGQLRELLDRAMREAIQSYPSQDKPLPPPPPGSLSRTQEPSLGKQKVFIIRKSLLDELMEVQHFRTIYHMFIAGLCVFIISTLAIDFIDEGRLLLEFDLLIFSFGQLPLALVTWVPMFLSTLLAPYQALRLWARGTWTQATGLGCALLAAHAVVLCALPVHVAVEHQLPPASRCVLVFEQVRFLMKSYSFLREAVPGTLRARRGEGIQAPSFSSYLYFLFCPTLIYRETYPRTPYVRWNYVAKNFAQALGCVLYACFILGRLCVPVFANMSREPFSTRALVLSILHATLPGIFMLLLIFFAFLHCWLNAFAEMLRFGDRMFYRDWWNSTSFSNYYRTWNVVVHDWLYSYVYQDGLRLLGARARGVAMLGVFLVSAVAHEYIFCFVLGFFYPVMLILFLVIGGMLNFMMHDQRTGPAWNVLMWTMLFLGQGIQVSLYCQEWYARRHCPLPQATFWGLVTPRSWSCHT

> <PDB ID(s) of Target Chain>


> <UniProt (SwissProt) Recommended Name of Target Chain>
Sterol O-acyltransferase 2

> <UniProt (SwissProt) Entry Name of Target Chain>
ACAT-2

> <UniProt (SwissProt) Primary ID of Target Chain>
O75908

> <UniProt (SwissProt) Secondary ID(s) of Target Chain>
F5H7W4 I6L9H9 Q4VB99 Q4VBA1 Q96TD4 Q9UNR2

> <UniProt (SwissProt) Alternative ID(s) of Target Chain>


> <UniProt (TrEMBL) Submitted Name of Target Chain>


> <UniProt (TrEMBL) Entry Name of Target Chain>


> <UniProt (TrEMBL) Primary ID of Target Chain>


> <UniProt (TrEMBL) Secondary ID(s) of Target Chain>


> <UniProt (TrEMBL) Alternative ID(s) of Target Chain>


$$$$

  Mrv0541 11241417312D          

 44 48  0  0  0  0            999 V2000
    8.6207  -26.8956    0.0000 C   0  0  0  0  0  0  0  0  0  0  0  0
    8.2124  -26.1830    0.0000 C   0  0  1  0  0  0  0  0  0  0  0  0
    7.7995  -26.8930    0.0000 C   0  0  0  0  0  0  0  0  0  0  0  0
    7.5040  -24.9497    0.0000 C   0  0  0  0  0  0  0  0  0  0  0  0
    7.5040  -25.7747    0.0000 C   0  0  2  0  0  0  0  0  0  0  0  0
    8.2161  -24.5330    0.0000 C   0  0  0  0  0  0  0  0  0  0  0  0
    8.9281  -24.9497    0.0000 C   0  0  1  0  0  0  0  0  0  0  0  0
    8.9291  -25.7747    0.0000 C   0  0  1  0  0  0  0  0  0  0  0  0
    9.6402  -26.1841    0.0000 C   0  0  0  0  0  0  0  0  0  0  0  0
   10.3548  -25.7729    0.0000 C   0  0  1  0  0  0  0  0  0  0  0  0
    9.6381  -24.5341    0.0000 C   0  0  2  0  0  0  0  0  0  0  0  0
   10.3556  -24.9486    0.0000 C   0  0  2  0  0  0  0  0  0  0  0  0
   11.0695  -24.5367    0.0000 O   0  0  0  0  0  0  0  0  0  0  0  0
    9.6344  -23.7076    0.0000 C   0  0  2  0  0  0  0  0  0  0  0  0
   10.3544  -23.2941    0.0000 C   0  0  0  0  0  0  0  0  0  0  0  0
   11.0769  -23.7077    0.0000 C   0  0  0  0  0  0  0  0  0  0  0  0
   11.7925  -23.2911    0.0000 C   0  0  0  0  0  0  0  0  0  0  0  0
   11.7917  -22.4591    0.0000 C   0  0  0  0  0  0  0  0  0  0  0  0
   11.0692  -22.0455    0.0000 O   0  0  0  0  0  0  0  0  0  0  0  0
   10.3473  -22.4639    0.0000 C   0  0  0  0  0  0  0  0  0  0  0  0
   12.5044  -22.0475    0.0000 C   0  0  0  0  0  0  0  0  0  0  0  0
   13.2201  -22.4602    0.0000 C   0  0  0  0  0  0  0  0  0  0  0  0
   13.9331  -22.0467    0.0000 N   0  0  0  0  0  0  0  0  0  0  0  0
   13.9316  -21.2208    0.0000 C   0  0  0  0  0  0  0  0  0  0  0  0
   13.2112  -20.8144    0.0000 C   0  0  0  0  0  0  0  0  0  0  0  0
   12.5012  -21.2260    0.0000 C   0  0  0  0  0  0  0  0  0  0  0  0
   11.0686  -26.1863    0.0000 O   0  0  0  0  0  0  0  0  0  0  0  0
   11.7837  -25.7747    0.0000 C   0  0  0  0  0  0  0  0  0  0  0  0
   12.4977  -26.1881    0.0000 C   0  0  0  0  0  0  0  0  0  0  0  0
   11.7847  -24.9497    0.0000 O   0  0  0  0  0  0  0  0  0  0  0  0
    9.6308  -22.0550    0.0000 O   0  0  0  0  0  0  0  0  0  0  0  0
    8.9194  -23.2960    0.0000 O   0  0  0  0  0  0  0  0  0  0  0  0
    8.9207  -24.1248    0.0000 C   0  0  0  0  0  0  0  0  0  0  0  0
   10.3499  -24.1205    0.0000 C   0  0  0  0  0  0  0  0  0  0  0  0
    6.7902  -26.1883    0.0000 O   0  0  0  0  0  0  0  0  0  0  0  0
    6.0751  -25.7768    0.0000 C   0  0  0  0  0  0  0  0  0  0  0  0
    5.3636  -26.1903    0.0000 C   0  0  0  0  0  0  0  0  0  0  0  0
    6.0739  -24.9518    0.0000 O   0  0  0  0  0  0  0  0  0  0  0  0
    6.9745  -26.8903    0.0000 O   0  0  0  0  0  0  0  0  0  0  0  0
    6.5598  -27.6035    0.0000 C   0  0  0  0  0  0  0  0  0  0  0  0
    5.7348  -27.6008    0.0000 O   0  0  0  0  0  0  0  0  0  0  0  0
    6.9700  -28.3192    0.0000 C   0  0  0  0  0  0  0  0  0  0  0  0
    7.7950  -28.3219    0.0000 C   0  0  0  0  0  0  0  0  0  0  0  0
    6.5552  -29.0324    0.0000 C   0  0  0  0  0  0  0  0  0  0  0  0
  2  1  1  1  0  0  0
  2  3  1  6  0  0  0
  5  4  1  0  0  0  0
  4  6  1  0  0  0  0
  2  5  1  0  0  0  0
  8  2  1  0  0  0  0
  7  6  1  0  0  0  0
  7  8  1  0  0  0  0
 11  7  1  1  0  0  0
  8  9  1  1  0  0  0
 10  9  1  0  0  0  0
 12 10  1  0  0  0  0
 11 12  1  0  0  0  0
 11 14  1  0  0  0  0
 12 13  1  0  0  0  0
 13 16  1  0  0  0  0
 14 15  1  0  0  0  0
 15 16  2  0  0  0  0
 15 20  1  0  0  0  0
 16 17  1  0  0  0  0
 17 18  2  0  0  0  0
 18 19  1  0  0  0  0
 19 20  1  0  0  0  0
 21 22  2  0  0  0  0
 22 23  1  0  0  0  0
 23 24  2  0  0  0  0
 24 25  1  0  0  0  0
 25 26  2  0  0  0  0
 26 21  1  0  0  0  0
 18 21  1  0  0  0  0
 10 27  1  1  0  0  0
 27 28  1  0  0  0  0
 28 29  1  0  0  0  0
 28 30  2  0  0  0  0
 20 31  2  0  0  0  0
 14 32  1  1  0  0  0
  7 33  1  1  0  0  0
 12 34  1  1  0  0  0
  5 35  1  1  0  0  0
 35 36  1  0  0  0  0
 36 37  1  0  0  0  0
 36 38  2  0  0  0  0
  3 39  1  0  0  0  0
 39 40  1  0  0  0  0
 40 41  2  0  0  0  0
 40 42  1  0  0  0  0
 42 43  1  0  0  0  0
 42 44  1  0  0  0  0
M  END
> <From>
www.bindingDB.org

> <BindingDB Reactant_set_id>
51061801

> <Ligand InChI>
InChI=1S/C33H41NO10/c1-17(2)29(38)40-16-32(6)23-14-25(42-19(4)36)33(7)28(31(23,5)11-10-24(32)41-18(3)35)27(37)26-22(44-33)13-21(43-30(26)39)20-9-8-12-34-15-20/h8-9,12-13,15,17,23-25,27-28,37H,10-11,14,16H2,1-7H3/t23-,24+,25+,27+,28-,31+,32+,33-/m1/s1

> <Ligand InChI Key>
CPKOQEWIEAGOLE-GGOITNCBSA-N

> <BindingDB MonomerID>
50433208

> <BindingDB Ligand Name>
CHEMBL2375697

> <Target Name>
Sterol O-acyltransferase 2

> <Target Source Organism According to Curator or DataSource>


> <Ki (nM)>


> <IC50 (nM)>
 75

> <Kd (nM)>


> <EC50 (nM)>


> <kon (M-1-s-1)>


> <koff (s-1)>


> <pH>


> <Temp (C)>


> <Curation/DataSource>
ChEMBL

> <Article DOI>
10.1016/j.bmcl.2013.02.088

> <BindingDB Entry DOI>
10.7270/Q20866P3

> <PMID>
23535327

> <PubChem AID>


> <Patent Number>


> <Authors>
Ohtawa, M; Yamazaki, H; Matsuda, D; Ohshiro, T; Rudel, LL; Omura, S; Tomoda, H; Nagamitsu, T

> <Institution>
Kitasato University

> <Link to Ligand in BindingDB>
http://www.bindingdb.org/bind/chemsearch/marvin/MolStructure.jsp?monomerid=50433208

> <Link to Target in BindingDB>
http://www.bindingdb.org/jsp/dbsearch/PrimarySearch_ki.jsp?energyterm=kJ/mole&tag=pol&polymerid=7773&target=Sterol+O-acyltransferase+2&column=ki&startPg=0&Increment=50&submit=Search

> <Link to Ligand-Target Pair in BindingDB>
http://www.bindingdb.org/jsp/dbsearch/PrimarySearch_ki.jsp?energyterm=kJ/mole&tag=r21&monomerid=50433208&enzyme=Sterol+O-acyltransferase+2&column=ki&startPg=0&Increment=50&submit=Search

> <Ligand HET ID in PDB>


> <PDB ID(s) for Ligand-Target Complex>


> <PubChem CID>
10698989

> <PubChem SID>
175445525

> <ChEBI ID of Ligand>


> <ChEMBL ID of Ligand>
CHEMBL2375697

> <DrugBank ID of Ligand>


> <IUPHAR_GRAC ID of Ligand>


> <KEGG ID of Ligand>


> <ZINC ID of Ligand>
ZINC96258626

> <Number of Protein Chains in Target (>1 implies a multichain complex)>
1

> <BindingDB Target Chain Sequence>
MEPGGARLRLQRTEGLGGERERQPCGDGNTETHRAPDLVQWTRHMEAVKAQLLEQAQGQLRELLDRAMREAIQSYPSQDKPLPPPPPGSLSRTQEPSLGKQKVFIIRKSLLDELMEVQHFRTIYHMFIAGLCVFIISTLAIDFIDEGRLLLEFDLLIFSFGQLPLALVTWVPMFLSTLLAPYQALRLWARGTWTQATGLGCALLAAHAVVLCALPVHVAVEHQLPPASRCVLVFEQVRFLMKSYSFLREAVPGTLRARRGEGIQAPSFSSYLYFLFCPTLIYRETYPRTPYVRWNYVAKNFAQALGCVLYACFILGRLCVPVFANMSREPFSTRALVLSILHATLPGIFMLLLIFFAFLHCWLNAFAEMLRFGDRMFYRDWWNSTSFSNYYRTWNVVVHDWLYSYVYQDGLRLLGARARGVAMLGVFLVSAVAHEYIFCFVLGFFYPVMLILFLVIGGMLNFMMHDQRTGPAWNVLMWTMLFLGQGIQVSLYCQEWYARRHCPLPQATFWGLVTPRSWSCHT

> <PDB ID(s) of Target Chain>


> <UniProt (SwissProt) Recommended Name of Target Chain>
Sterol O-acyltransferase 2

> <UniProt (SwissProt) Entry Name of Target Chain>
ACAT-2

> <UniProt (SwissProt) Primary ID of Target Chain>
O75908

> <UniProt (SwissProt) Secondary ID(s) of Target Chain>
F5H7W4 I6L9H9 Q4VB99 Q4VBA1 Q96TD4 Q9UNR2

> <UniProt (SwissProt) Alternative ID(s) of Target Chain>


> <UniProt (TrEMBL) Submitted Name of Target Chain>


> <UniProt (TrEMBL) Entry Name of Target Chain>


> <UniProt (TrEMBL) Primary ID of Target Chain>


> <UniProt (TrEMBL) Secondary ID(s) of Target Chain>


> <UniProt (TrEMBL) Alternative ID(s) of Target Chain>


$$$$
00048001.cdx
  Mrv0541 12012113462D          

 38 41  0  0  0  0            999 V2000
    1.1581   -0.8517    0.0000 C   0  0  0  0  0  0  0  0  0  0  0  0
    1.8726   -0.4392    0.0000 C   0  0  2  0  0  0  0  0  0  0  0  0
    1.8726    0.3858    0.0000 C   0  0  0  0  0  0  0  0  0  0  0  0
    1.1581    0.7983    0.0000 C   0  0  2  0  0  0  0  0  0  0  0  0
    0.4436    0.3858    0.0000 C   0  0  1  0  0  0  0  0  0  0  0  0
    0.4436   -0.4392    0.0000 C   0  0  1  0  0  0  0  0  0  0  0  0
   -0.2708    0.7983    0.0000 O   0  0  0  0  0  0  0  0  0  0  0  0
   -0.9853    0.3858    0.0000 C   0  0  0  0  0  0  0  0  0  0  0  0
   -0.9853   -0.4392    0.0000 C   0  0  0  0  0  0  0  0  0  0  0  0
   -0.2708   -0.8517    0.0000 C   0  0  2  0  0  0  0  0  0  0  0  0
   -1.6998    0.7983    0.0000 C   0  0  0  0  0  0  0  0  0  0  0  0
   -2.4143    0.3858    0.0000 C   0  0  0  0  0  0  0  0  0  0  0  0
   -2.4143   -0.4392    0.0000 O   0  0  0  0  0  0  0  0  0  0  0  0
   -1.6998   -0.8517    0.0000 C   0  0  0  0  0  0  0  0  0  0  0  0
    2.5870   -0.8517    0.0000 C   0  0  1  0  0  0  0  0  0  0  0  0
    2.1745   -1.5662    0.0000 C   0  0  0  0  0  0  0  0  0  0  0  0
   -0.2708   -1.6767    0.0000 O   0  0  0  0  0  0  0  0  0  0  0  0
   -1.6998   -1.6767    0.0000 O   0  0  0  0  0  0  0  0  0  0  0  0
   -3.1287    0.7983    0.0000 C   0  0  0  0  0  0  0  0  0  0  0  0
   -3.8432    0.3858    0.0000 C   0  0  0  0  0  0  0  0  0  0  0  0
   -4.5577    0.7983    0.0000 N   0  0  0  0  0  0  0  0  0  0  0  0
   -4.5577    1.6233    0.0000 C   0  0  0  0  0  0  0  0  0  0  0  0
   -3.8432    2.0358    0.0000 C   0  0  0  0  0  0  0  0  0  0  0  0
   -3.1287    1.6233    0.0000 C   0  0  0  0  0  0  0  0  0  0  0  0
    0.4436    1.2108    0.0000 C   0  0  0  0  0  0  0  0  0  0  0  0
    2.9995   -0.1373    0.0000 C   0  0  0  0  0  0  0  0  0  0  0  0
    1.3495   -1.5662    0.0000 O   0  0  0  0  0  0  0  0  0  0  0  0
    1.1581    1.6233    0.0000 O   0  0  0  0  0  0  0  0  0  0  0  0
   -0.2708    1.6233    0.0000 O   0  0  0  0  0  0  0  0  0  0  0  0
    0.4436    2.0358    0.0000 C   0  0  0  0  0  0  0  0  0  0  0  0
    0.4436    2.8608    0.0000 C   0  0  0  0  0  0  0  0  0  0  0  0
    3.3015   -1.2642    0.0000 O   0  0  0  0  0  0  0  0  0  0  0  0
    4.0160   -2.5017    0.0000 O   0  0  0  0  0  0  0  0  0  0  0  0
    3.3015   -2.0892    0.0000 C   0  0  0  0  0  0  0  0  0  0  0  0
    2.5870   -2.5017    0.0000 C   0  0  0  0  0  0  0  0  0  0  0  0
    0.9370   -2.2807    0.0000 C   0  0  0  0  0  0  0  0  0  0  0  0
    0.1120   -2.2807    0.0000 C   0  0  0  0  0  0  0  0  0  0  0  0
    1.3495   -2.9951    0.0000 O   0  0  0  0  0  0  0  0  0  0  0  0
  2  1  1  0  0  0  0
  2  3  1  0  0  0  0
  4  3  1  0  0  0  0
  5  4  1  0  0  0  0
  5  6  1  0  0  0  0
  6  1  1  6  0  0  0
  5  7  1  0  0  0  0
  7  8  1  0  0  0  0
  8  9  4  0  0  0  0
 10  9  1  0  0  0  0
  6 10  1  0  0  0  0
  8 11  4  0  0  0  0
 11 12  4  0  0  0  0
 12 13  4  0  0  0  0
 13 14  4  0  0  0  0
 14  9  4  0  0  0  0
  2 15  1  6  0  0  0
 15 16  1  0  0  0  0
 10 17  1  1  0  0  0
 14 18  2  0  0  0  0
 12 19  1  0  0  0  0
 19 20  4  0  0  0  0
 20 21  4  0  0  0  0
 21 22  4  0  0  0  0
 22 23  4  0  0  0  0
 23 24  4  0  0  0  0
 24 19  4  0  0  0  0
  5 25  1  6  0  0  0
 15 26  1  6  0  0  0
  4 28  1  6  0  0  0
 15 32  1  1  0  0  0
 32 34  1  0  0  0  0
 33 34  2  0  0  0  0
 34 35  1  0  0  0  0
 28 30  1  0  0  0  0
 29 30  2  0  0  0  0
 30 31  1  0  0  0  0
 16 27  1  0  0  0  0
 27 36  1  0  0  0  0
 36 37  1  0  0  0  0
 36 38  2  0  0  0  0
M  END
> <From>
www.bindingDB.org

> <BindingDB Reactant_set_id>
765833

> <Ligand InChI>
InChI=1S/C27H31NO10/c1-14(29)34-13-26(4,37-16(3)31)18-9-19-24(32)23-21(38-27(19,5)22(10-18)35-15(2)30)11-20(36-25(23)33)17-7-6-8-28-12-17/h6-8,11-12,18-19,22,24,32H,9-10,13H2,1-5H3/t18-,19-,22-,24-,26+,27-/m1/s1

> <Ligand InChI Key>
NIGGKHQHUNJNPM-YBEFSANESA-N

> <BindingDB MonomerID>
383183

> <BindingDB Ligand Name>
US10278962, Compound 21

> <Target Name>
Sterol O-acyltransferase 2

> <Target Source Organism According to Curator or DataSource>


> <Ki (nM)>


> <IC50 (nM)>
 78.0

> <Kd (nM)>


> <EC50 (nM)>


> <kon (M-1-s-1)>


> <koff (s-1)>


> <pH>


> <Temp (C)>


> <Curation/DataSource>
US Patent

> <Article DOI>


> <BindingDB Entry DOI>
10.7270/Q2CF9SF8

> <PMID>


> <PubChem AID>
aid1798542

> <Patent Number>
US10278962

> <Authors>
Nan, F; Li, B; Zhan, Y; Zhang, X; Xiong, Y; Hu, X; Zhang, Y

> <Institution>
Shanghai Institute of Materia Medica, Chinese Academy of Sciences

> <Link to Ligand in BindingDB>
http://www.bindingdb.org/bind/chemsearch/marvin/MolStructure.jsp?monomerid=383183

> <Link to Target in BindingDB>
http://www.bindingdb.org/jsp/dbsearch/PrimarySearch_ki.jsp?energyterm=kJ/mole&tag=pol&polymerid=7773&target=Sterol+O-acyltransferase+2&column=ki&startPg=0&Increment=50&submit=Search

> <Link to Ligand-Target Pair in BindingDB>
http://www.bindingdb.org/jsp/dbsearch/PrimarySearch_ki.jsp?energyterm=kJ/mole&tag=r21&monomerid=383183&enzyme=Sterol+O-acyltransferase+2&column=ki&startPg=0&Increment=50&submit=Search

> <Ligand HET ID in PDB>


> <PDB ID(s) for Ligand-Target Complex>


> <PubChem CID>
134188332

> <PubChem SID>
404852477

> <ChEBI ID of Ligand>


> <ChEMBL ID of Ligand>


> <DrugBank ID of Ligand>


> <IUPHAR_GRAC ID of Ligand>


> <KEGG ID of Ligand>


> <ZINC ID of Ligand>


> <Number of Protein Chains in Target (>1 implies a multichain complex)>
1

> <BindingDB Target Chain Sequence>
MEPGGARLRLQRTEGLGGERERQPCGDGNTETHRAPDLVQWTRHMEAVKAQLLEQAQGQLRELLDRAMREAIQSYPSQDKPLPPPPPGSLSRTQEPSLGKQKVFIIRKSLLDELMEVQHFRTIYHMFIAGLCVFIISTLAIDFIDEGRLLLEFDLLIFSFGQLPLALVTWVPMFLSTLLAPYQALRLWARGTWTQATGLGCALLAAHAVVLCALPVHVAVEHQLPPASRCVLVFEQVRFLMKSYSFLREAVPGTLRARRGEGIQAPSFSSYLYFLFCPTLIYRETYPRTPYVRWNYVAKNFAQALGCVLYACFILGRLCVPVFANMSREPFSTRALVLSILHATLPGIFMLLLIFFAFLHCWLNAFAEMLRFGDRMFYRDWWNSTSFSNYYRTWNVVVHDWLYSYVYQDGLRLLGARARGVAMLGVFLVSAVAHEYIFCFVLGFFYPVMLILFLVIGGMLNFMMHDQRTGPAWNVLMWTMLFLGQGIQVSLYCQEWYARRHCPLPQATFWGLVTPRSWSCHT

> <PDB ID(s) of Target Chain>


> <UniProt (SwissProt) Recommended Name of Target Chain>
Sterol O-acyltransferase 2

> <UniProt (SwissProt) Entry Name of Target Chain>
ACAT-2

> <UniProt (SwissProt) Primary ID of Target Chain>
O75908

> <UniProt (SwissProt) Secondary ID(s) of Target Chain>
F5H7W4 I6L9H9 Q4VB99 Q4VBA1 Q96TD4 Q9UNR2

> <UniProt (SwissProt) Alternative ID(s) of Target Chain>


> <UniProt (TrEMBL) Submitted Name of Target Chain>


> <UniProt (TrEMBL) Entry Name of Target Chain>


> <UniProt (TrEMBL) Primary ID of Target Chain>


> <UniProt (TrEMBL) Secondary ID(s) of Target Chain>


> <UniProt (TrEMBL) Alternative ID(s) of Target Chain>


$$$$
00055001.cdx
  Mrv0541 12012113462D          

 32 35  0  0  0  0            999 V2000
   -1.4289   -1.0313    0.0000 C   0  0  0  0  0  0  0  0  0  0  0  0
   -1.4289   -1.8563    0.0000 C   0  0  2  0  0  0  0  0  0  0  0  0
   -0.7145   -2.2687    0.0000 C   0  0  0  0  0  0  0  0  0  0  0  0
    0.0000   -1.8563    0.0000 C   0  0  2  0  0  0  0  0  0  0  0  0
    0.0000   -1.0313    0.0000 C   0  0  1  0  0  0  0  0  0  0  0  0
   -0.7145   -0.6187    0.0000 C   0  0  1  0  0  0  0  0  0  0  0  0
    0.7145   -0.6187    0.0000 O   0  0  0  0  0  0  0  0  0  0  0  0
    0.7145    0.2062    0.0000 C   0  0  0  0  0  0  0  0  0  0  0  0
    0.0000    0.6187    0.0000 C   0  0  0  0  0  0  0  0  0  0  0  0
   -0.7145    0.2062    0.0000 C   0  0  2  0  0  0  0  0  0  0  0  0
    1.4289    0.6187    0.0000 C   0  0  0  0  0  0  0  0  0  0  0  0
    1.4289    1.4437    0.0000 C   0  0  0  0  0  0  0  0  0  0  0  0
    0.7145    1.8563    0.0000 O   0  0  0  0  0  0  0  0  0  0  0  0
    0.0000    1.4437    0.0000 C   0  0  0  0  0  0  0  0  0  0  0  0
   -2.1434   -2.2687    0.0000 C   0  0  2  0  0  0  0  0  0  0  0  0
   -2.8579   -1.8563    0.0000 C   0  0  0  0  0  0  0  0  0  0  0  0
   -2.1434   -3.0938    0.0000 O   0  0  0  0  0  0  0  0  0  0  0  0
   -1.4289    0.6187    0.0000 O   0  0  0  0  0  0  0  0  0  0  0  0
   -0.7145    1.8563    0.0000 O   0  0  0  0  0  0  0  0  0  0  0  0
    2.1434    1.8563    0.0000 C   0  0  0  0  0  0  0  0  0  0  0  0
    2.8579    1.4437    0.0000 C   0  0  0  0  0  0  0  0  0  0  0  0
    3.5724    1.8563    0.0000 N   0  0  0  0  0  0  0  0  0  0  0  0
    3.5724    2.6812    0.0000 C   0  0  0  0  0  0  0  0  0  0  0  0
    2.8579    3.0938    0.0000 C   0  0  0  0  0  0  0  0  0  0  0  0
    2.1434    2.6812    0.0000 C   0  0  0  0  0  0  0  0  0  0  0  0
    0.7145   -2.2687    0.0000 O   0  0  0  0  0  0  0  0  0  0  0  0
    0.0000   -0.2062    0.0000 C   0  0  0  0  0  0  0  0  0  0  0  0
   -2.1434   -1.4437    0.0000 C   0  0  0  0  0  0  0  0  0  0  0  0
   -3.5724   -2.2687    0.0000 O   0  0  0  0  0  0  0  0  0  0  0  0
   -4.2868   -1.8561    0.0000 C   0  0  0  0  0  0  0  0  0  0  0  0
   -5.0013   -2.2685    0.0000 C   0  0  0  0  0  0  0  0  0  0  0  0
   -4.2867   -1.0311    0.0000 O   0  0  0  0  0  0  0  0  0  0  0  0
  2  1  1  0  0  0  0
  2  3  1  0  0  0  0
  4  3  1  0  0  0  0
  5  4  1  0  0  0  0
  5  6  1  0  0  0  0
  6  1  1  6  0  0  0
  5  7  1  0  0  0  0
  7  8  1  0  0  0  0
  8  9  4  0  0  0  0
 10  9  1  0  0  0  0
  6 10  1  0  0  0  0
  8 11  4  0  0  0  0
 11 12  4  0  0  0  0
 12 13  4  0  0  0  0
 13 14  4  0  0  0  0
 14  9  4  0  0  0  0
  2 15  1  6  0  0  0
 15 16  1  1  0  0  0
 15 17  1  6  0  0  0
 10 18  1  1  0  0  0
 14 19  2  0  0  0  0
 12 20  1  0  0  0  0
 20 21  4  0  0  0  0
 21 22  4  0  0  0  0
 22 23  4  0  0  0  0
 23 24  4  0  0  0  0
 24 25  4  0  0  0  0
 25 20  4  0  0  0  0
  4 26  1  6  0  0  0
  5 27  1  6  0  0  0
 15 28  1  0  0  0  0
 16 29  1  0  0  0  0
 29 30  1  0  0  0  0
 30 31  1  0  0  0  0
 30 32  2  0  0  0  0
M  END
> <From>
www.bindingDB.org

> <BindingDB Reactant_set_id>
765837

> <Ligand InChI>
InChI=1S/C23H27NO8/c1-12(25)30-11-22(2,29)14-7-15-20(27)19-17(32-23(15,3)18(26)8-14)9-16(31-21(19)28)13-5-4-6-24-10-13/h4-6,9-10,14-15,18,20,26-27,29H,7-8,11H2,1-3H3/t14-,15-,18-,20-,22+,23-/m1/s1

> <Ligand InChI Key>
DAMNHPBVADWBQN-NWEBNPNNSA-N

> <BindingDB MonomerID>
383187

> <BindingDB Ligand Name>
US10278962, Compound 29

> <Target Name>
Sterol O-acyltransferase 2

> <Target Source Organism According to Curator or DataSource>


> <Ki (nM)>


> <IC50 (nM)>
 81.0

> <Kd (nM)>


> <EC50 (nM)>


> <kon (M-1-s-1)>


> <koff (s-1)>


> <pH>


> <Temp (C)>


> <Curation/DataSource>
US Patent

> <Article DOI>


> <BindingDB Entry DOI>
10.7270/Q2CF9SF8

> <PMID>


> <PubChem AID>
aid1798542

> <Patent Number>
US10278962

> <Authors>
Nan, F; Li, B; Zhan, Y; Zhang, X; Xiong, Y; Hu, X; Zhang, Y

> <Institution>
Shanghai Institute of Materia Medica, Chinese Academy of Sciences

> <Link to Ligand in BindingDB>
http://www.bindingdb.org/bind/chemsearch/marvin/MolStructure.jsp?monomerid=383187

> <Link to Target in BindingDB>
http://www.bindingdb.org/jsp/dbsearch/PrimarySearch_ki.jsp?energyterm=kJ/mole&tag=pol&polymerid=7773&target=Sterol+O-acyltransferase+2&column=ki&startPg=0&Increment=50&submit=Search

> <Link to Ligand-Target Pair in BindingDB>
http://www.bindingdb.org/jsp/dbsearch/PrimarySearch_ki.jsp?energyterm=kJ/mole&tag=r21&monomerid=383187&enzyme=Sterol+O-acyltransferase+2&column=ki&startPg=0&Increment=50&submit=Search

> <Ligand HET ID in PDB>


> <PDB ID(s) for Ligand-Target Complex>


> <PubChem CID>
134188211

> <PubChem SID>
404852481

> <ChEBI ID of Ligand>


> <ChEMBL ID of Ligand>


> <DrugBank ID of Ligand>


> <IUPHAR_GRAC ID of Ligand>


> <KEGG ID of Ligand>


> <ZINC ID of Ligand>


> <Number of Protein Chains in Target (>1 implies a multichain complex)>
1

> <BindingDB Target Chain Sequence>
MEPGGARLRLQRTEGLGGERERQPCGDGNTETHRAPDLVQWTRHMEAVKAQLLEQAQGQLRELLDRAMREAIQSYPSQDKPLPPPPPGSLSRTQEPSLGKQKVFIIRKSLLDELMEVQHFRTIYHMFIAGLCVFIISTLAIDFIDEGRLLLEFDLLIFSFGQLPLALVTWVPMFLSTLLAPYQALRLWARGTWTQATGLGCALLAAHAVVLCALPVHVAVEHQLPPASRCVLVFEQVRFLMKSYSFLREAVPGTLRARRGEGIQAPSFSSYLYFLFCPTLIYRETYPRTPYVRWNYVAKNFAQALGCVLYACFILGRLCVPVFANMSREPFSTRALVLSILHATLPGIFMLLLIFFAFLHCWLNAFAEMLRFGDRMFYRDWWNSTSFSNYYRTWNVVVHDWLYSYVYQDGLRLLGARARGVAMLGVFLVSAVAHEYIFCFVLGFFYPVMLILFLVIGGMLNFMMHDQRTGPAWNVLMWTMLFLGQGIQVSLYCQEWYARRHCPLPQATFWGLVTPRSWSCHT

> <PDB ID(s) of Target Chain>


> <UniProt (SwissProt) Recommended Name of Target Chain>
Sterol O-acyltransferase 2

> <UniProt (SwissProt) Entry Name of Target Chain>
ACAT-2

> <UniProt (SwissProt) Primary ID of Target Chain>
O75908

> <UniProt (SwissProt) Secondary ID(s) of Target Chain>
F5H7W4 I6L9H9 Q4VB99 Q4VBA1 Q96TD4 Q9UNR2

> <UniProt (SwissProt) Alternative ID(s) of Target Chain>


> <UniProt (TrEMBL) Submitted Name of Target Chain>


> <UniProt (TrEMBL) Entry Name of Target Chain>


> <UniProt (TrEMBL) Primary ID of Target Chain>


> <UniProt (TrEMBL) Secondary ID(s) of Target Chain>


> <UniProt (TrEMBL) Alternative ID(s) of Target Chain>


$$$$
00039001.cdx
  Mrv0541 12012113462D          

 48 52  0  0  0  0            999 V2000
   -4.3475  -12.6748    0.0000 C   0  0  0  0  0  0  0  0  0  0  0  0
   -3.6331  -13.0873    0.0000 C   0  0  1  0  0  0  0  0  0  0  0  0
   -3.6331  -13.9123    0.0000 C   0  0  0  0  0  0  0  0  0  0  0  0
   -4.3475  -14.3248    0.0000 C   0  0  1  0  0  0  0  0  0  0  0  0
   -5.0620  -13.9123    0.0000 C   0  0  2  0  0  0  0  0  0  0  0  0
   -5.0620  -13.0873    0.0000 C   0  0  2  0  0  0  0  0  0  0  0  0
   -5.7765  -12.6748    0.0000 C   0  0  2  0  0  0  0  0  0  0  0  0
   -5.7765  -14.3248    0.0000 O   0  0  0  0  0  0  0  0  0  0  0  0
   -2.9186  -12.6748    0.0000 C   0  0  3  0  0  0  0  0  0  0  0  0
   -3.3311  -11.9604    0.0000 C   0  0  0  0  0  0  0  0  0  0  0  0
   -4.3475  -15.1498    0.0000 O   0  0  0  0  0  0  0  0  0  0  0  0
   -5.7765  -11.8498    0.0000 O   0  0  0  0  0  0  0  0  0  0  0  0
   -6.4910  -13.0873    0.0000 C   0  0  0  0  0  0  0  0  0  0  0  0
   -6.4910  -13.9123    0.0000 C   0  0  0  0  0  0  0  0  0  0  0  0
   -7.2054  -14.3248    0.0000 C   0  0  0  0  0  0  0  0  0  0  0  0
   -5.0620  -14.7373    0.0000 C   0  0  0  0  0  0  0  0  0  0  0  0
   -7.9199  -13.9123    0.0000 C   0  0  0  0  0  0  0  0  0  0  0  0
   -7.9199  -13.0873    0.0000 O   0  0  0  0  0  0  0  0  0  0  0  0
   -7.2054  -12.6748    0.0000 C   0  0  0  0  0  0  0  0  0  0  0  0
   -7.2054  -11.8498    0.0000 O   0  0  0  0  0  0  0  0  0  0  0  0
   -8.6344  -14.3248    0.0000 C   0  0  0  0  0  0  0  0  0  0  0  0
   -8.6344  -15.1498    0.0000 C   0  0  0  0  0  0  0  0  0  0  0  0
   -9.3488  -15.5623    0.0000 N   0  0  0  0  0  0  0  0  0  0  0  0
  -10.0633  -15.1498    0.0000 C   0  0  0  0  0  0  0  0  0  0  0  0
   -9.3488  -13.9123    0.0000 C   0  0  0  0  0  0  0  0  0  0  0  0
   -2.9186  -11.2459    0.0000 O   0  0  0  0  0  0  0  0  0  0  0  0
   -2.2041  -12.2623    0.0000 C   0  0  0  0  0  0  0  0  0  0  0  0
  -10.0633  -14.3248    0.0000 C   0  0  0  0  0  0  0  0  0  0  0  0
   -3.6331  -15.5623    0.0000 C   0  0  0  0  0  0  0  0  0  0  0  0
   -3.6331  -16.3873    0.0000 C   0  0  0  0  0  0  0  0  0  0  0  0
   -2.9186  -15.1498    0.0000 O   0  0  0  0  0  0  0  0  0  0  0  0
   -2.9186  -16.7998    0.0000 C   0  0  0  0  0  0  0  0  0  0  0  0
   -2.9186  -17.6248    0.0000 C   0  0  0  0  0  0  0  0  0  0  0  0
   -3.6331  -18.0373    0.0000 C   0  0  0  0  0  0  0  0  0  0  0  0
   -4.3475  -17.6248    0.0000 C   0  0  0  0  0  0  0  0  0  0  0  0
   -4.3475  -16.7998    0.0000 C   0  0  0  0  0  0  0  0  0  0  0  0
   -3.6331  -18.8623    0.0000 C   0  0  0  0  0  0  0  0  0  0  0  0
   -3.6331  -19.6873    0.0000 N   0  0  0  0  0  0  0  0  0  0  0  0
   -2.5061  -13.3893    0.0000 O   0  0  0  0  0  0  0  0  0  0  0  0
   -1.2686  -14.1038    0.0000 O   0  0  0  0  0  0  0  0  0  0  0  0
   -1.6811  -13.3893    0.0000 C   0  0  0  0  0  0  0  0  0  0  0  0
   -1.2686  -12.6748    0.0000 C   0  0  0  0  0  0  0  0  0  0  0  0
   -3.3311  -10.5314    0.0000 C   0  0  0  0  0  0  0  0  0  0  0  0
   -4.1561  -10.5315    0.0000 O   0  0  0  0  0  0  0  0  0  0  0  0
   -2.9186   -9.8170    0.0000 C   0  0  0  0  0  0  0  0  0  0  0  0
   -5.0620  -11.4373    0.0000 C   0  0  0  0  0  0  0  0  0  0  0  0
   -5.0620  -10.6123    0.0000 O   0  0  0  0  0  0  0  0  0  0  0  0
   -4.3476  -11.8498    0.0000 C   0  0  0  0  0  0  0  0  0  0  0  0
  2  1  1  0  0  0  0
  2  3  1  0  0  0  0
  4  3  1  0  0  0  0
  5  4  1  0  0  0  0
  5  6  1  0  0  0  0
  6  1  1  6  0  0  0
  6  7  1  0  0  0  0
  5  8  1  0  0  0  0
  2  9  1  6  0  0  0
  9 10  1  4  0  0  0
  4 11  1  6  0  0  0
  7 12  1  1  0  0  0
  7 13  1  0  0  0  0
 13 14  4  0  0  0  0
 14 15  4  0  0  0  0
  8 14  1  0  0  0  0
  5 16  1  6  0  0  0
 15 17  4  0  0  0  0
 17 18  4  0  0  0  0
 18 19  4  0  0  0  0
 19 13  4  0  0  0  0
 19 20  2  0  0  0  0
 17 21  1  0  0  0  0
 21 22  4  0  0  0  0
 22 23  4  0  0  0  0
 23 24  4  0  0  0  0
 25 21  4  0  0  0  0
  9 27  1  0  0  0  0
 24 28  4  0  0  0  0
 28 25  4  0  0  0  0
 11 29  1  0  0  0  0
 29 30  1  0  0  0  0
 29 31  2  0  0  0  0
 30 32  4  0  0  0  0
 32 33  4  0  0  0  0
 33 34  4  0  0  0  0
 34 35  4  0  0  0  0
 35 36  4  0  0  0  0
 36 30  4  0  0  0  0
 34 37  1  0  0  0  0
 37 38  3  0  0  0  0
  9 39  1  0  0  0  0
 39 41  1  0  0  0  0
 40 41  2  0  0  0  0
 41 42  1  0  0  0  0
 10 26  1  0  0  0  0
 26 43  1  0  0  0  0
 43 45  1  0  0  0  0
 43 44  2  0  0  0  0
 12 46  1  0  0  0  0
 46 48  1  0  0  0  0
 46 47  2  0  0  0  0
M  END
> <From>
www.bindingDB.org

> <BindingDB Reactant_set_id>
765828

> <Ligand InChI>
InChI=1S/C35H34N2O11/c1-19(38)43-18-34(4,47-21(3)40)25-13-26-31(44-20(2)39)30-28(15-27(45-33(30)42)24-7-6-12-37-17-24)48-35(26,5)29(14-25)46-32(41)23-10-8-22(16-36)9-11-23/h6-12,15,17,25-26,29,31H,13-14,18H2,1-5H3/t25-,26-,29-,31-,34?,35-/m0/s1

> <Ligand InChI Key>
GYLPTMGETOHQBY-CFHZZZJMSA-N

> <BindingDB MonomerID>
383177

> <BindingDB Ligand Name>
US10278962, Compound 8

> <Target Name>
Sterol O-acyltransferase 2

> <Target Source Organism According to Curator or DataSource>


> <Ki (nM)>


> <IC50 (nM)>
 86.0

> <Kd (nM)>


> <EC50 (nM)>


> <kon (M-1-s-1)>


> <koff (s-1)>


> <pH>


> <Temp (C)>


> <Curation/DataSource>
US Patent

> <Article DOI>


> <BindingDB Entry DOI>
10.7270/Q2CF9SF8

> <PMID>


> <PubChem AID>
aid1798542

> <Patent Number>
US10278962

> <Authors>
Nan, F; Li, B; Zhan, Y; Zhang, X; Xiong, Y; Hu, X; Zhang, Y

> <Institution>
Shanghai Institute of Materia Medica, Chinese Academy of Sciences

> <Link to Ligand in BindingDB>
http://www.bindingdb.org/bind/chemsearch/marvin/MolStructure.jsp?monomerid=383177

> <Link to Target in BindingDB>
http://www.bindingdb.org/jsp/dbsearch/PrimarySearch_ki.jsp?energyterm=kJ/mole&tag=pol&polymerid=7773&target=Sterol+O-acyltransferase+2&column=ki&startPg=0&Increment=50&submit=Search

> <Link to Ligand-Target Pair in BindingDB>
http://www.bindingdb.org/jsp/dbsearch/PrimarySearch_ki.jsp?energyterm=kJ/mole&tag=r21&monomerid=383177&enzyme=Sterol+O-acyltransferase+2&column=ki&startPg=0&Increment=50&submit=Search

> <Ligand HET ID in PDB>


> <PDB ID(s) for Ligand-Target Complex>


> <PubChem CID>
145995622

> <PubChem SID>
404852472

> <ChEBI ID of Ligand>


> <ChEMBL ID of Ligand>


> <DrugBank ID of Ligand>


> <IUPHAR_GRAC ID of Ligand>


> <KEGG ID of Ligand>


> <ZINC ID of Ligand>


> <Number of Protein Chains in Target (>1 implies a multichain complex)>
1

> <BindingDB Target Chain Sequence>
MEPGGARLRLQRTEGLGGERERQPCGDGNTETHRAPDLVQWTRHMEAVKAQLLEQAQGQLRELLDRAMREAIQSYPSQDKPLPPPPPGSLSRTQEPSLGKQKVFIIRKSLLDELMEVQHFRTIYHMFIAGLCVFIISTLAIDFIDEGRLLLEFDLLIFSFGQLPLALVTWVPMFLSTLLAPYQALRLWARGTWTQATGLGCALLAAHAVVLCALPVHVAVEHQLPPASRCVLVFEQVRFLMKSYSFLREAVPGTLRARRGEGIQAPSFSSYLYFLFCPTLIYRETYPRTPYVRWNYVAKNFAQALGCVLYACFILGRLCVPVFANMSREPFSTRALVLSILHATLPGIFMLLLIFFAFLHCWLNAFAEMLRFGDRMFYRDWWNSTSFSNYYRTWNVVVHDWLYSYVYQDGLRLLGARARGVAMLGVFLVSAVAHEYIFCFVLGFFYPVMLILFLVIGGMLNFMMHDQRTGPAWNVLMWTMLFLGQGIQVSLYCQEWYARRHCPLPQATFWGLVTPRSWSCHT

> <PDB ID(s) of Target Chain>


> <UniProt (SwissProt) Recommended Name of Target Chain>
Sterol O-acyltransferase 2

> <UniProt (SwissProt) Entry Name of Target Chain>
ACAT-2

> <UniProt (SwissProt) Primary ID of Target Chain>
O75908

> <UniProt (SwissProt) Secondary ID(s) of Target Chain>
F5H7W4 I6L9H9 Q4VB99 Q4VBA1 Q96TD4 Q9UNR2

> <UniProt (SwissProt) Alternative ID(s) of Target Chain>


> <UniProt (TrEMBL) Submitted Name of Target Chain>


> <UniProt (TrEMBL) Entry Name of Target Chain>


> <UniProt (TrEMBL) Primary ID of Target Chain>


> <UniProt (TrEMBL) Secondary ID(s) of Target Chain>


> <UniProt (TrEMBL) Alternative ID(s) of Target Chain>


$$$$
00049001.cdx
  Mrv0541 12012113462D          

 38 41  0  0  0  0            999 V2000
    1.1581   -0.8517    0.0000 C   0  0  0  0  0  0  0  0  0  0  0  0
    1.8726   -0.4392    0.0000 C   0  0  2  0  0  0  0  0  0  0  0  0
    1.8726    0.3858    0.0000 C   0  0  0  0  0  0  0  0  0  0  0  0
    1.1581    0.7983    0.0000 C   0  0  2  0  0  0  0  0  0  0  0  0
    0.4436    0.3858    0.0000 C   0  0  1  0  0  0  0  0  0  0  0  0
    0.4436   -0.4392    0.0000 C   0  0  2  0  0  0  0  0  0  0  0  0
   -0.2708    0.7983    0.0000 O   0  0  0  0  0  0  0  0  0  0  0  0
   -0.9853    0.3858    0.0000 C   0  0  0  0  0  0  0  0  0  0  0  0
   -0.9853   -0.4392    0.0000 C   0  0  0  0  0  0  0  0  0  0  0  0
   -0.2708   -0.8517    0.0000 C   0  0  1  0  0  0  0  0  0  0  0  0
   -1.6998    0.7983    0.0000 C   0  0  0  0  0  0  0  0  0  0  0  0
   -2.4143    0.3858    0.0000 C   0  0  0  0  0  0  0  0  0  0  0  0
   -2.4143   -0.4392    0.0000 O   0  0  0  0  0  0  0  0  0  0  0  0
   -1.6998   -0.8517    0.0000 C   0  0  0  0  0  0  0  0  0  0  0  0
    2.5870   -0.8517    0.0000 C   0  0  1  0  0  0  0  0  0  0  0  0
    2.1745   -1.5662    0.0000 C   0  0  0  0  0  0  0  0  0  0  0  0
   -0.2708   -1.6767    0.0000 O   0  0  0  0  0  0  0  0  0  0  0  0
   -1.6998   -1.6767    0.0000 O   0  0  0  0  0  0  0  0  0  0  0  0
   -3.1287    0.7983    0.0000 C   0  0  0  0  0  0  0  0  0  0  0  0
   -3.8432    0.3858    0.0000 C   0  0  0  0  0  0  0  0  0  0  0  0
   -4.5577    0.7983    0.0000 N   0  0  0  0  0  0  0  0  0  0  0  0
   -4.5577    1.6233    0.0000 C   0  0  0  0  0  0  0  0  0  0  0  0
   -3.8432    2.0358    0.0000 C   0  0  0  0  0  0  0  0  0  0  0  0
   -3.1287    1.6233    0.0000 C   0  0  0  0  0  0  0  0  0  0  0  0
    0.4436    1.2108    0.0000 C   0  0  0  0  0  0  0  0  0  0  0  0
    2.9995   -0.1373    0.0000 C   0  0  0  0  0  0  0  0  0  0  0  0
    1.3495   -1.5662    0.0000 O   0  0  0  0  0  0  0  0  0  0  0  0
    3.3015   -1.2642    0.0000 O   0  0  0  0  0  0  0  0  0  0  0  0
    4.0160   -2.5017    0.0000 O   0  0  0  0  0  0  0  0  0  0  0  0
    3.3015   -2.0892    0.0000 C   0  0  0  0  0  0  0  0  0  0  0  0
    2.5870   -2.5017    0.0000 C   0  0  0  0  0  0  0  0  0  0  0  0
    1.1581    1.6233    0.0000 O   0  0  0  0  0  0  0  0  0  0  0  0
   -0.2708    1.6233    0.0000 O   0  0  0  0  0  0  0  0  0  0  0  0
    0.4436    2.0358    0.0000 C   0  0  0  0  0  0  0  0  0  0  0  0
    0.4436    2.8608    0.0000 C   0  0  0  0  0  0  0  0  0  0  0  0
    0.9370   -2.2807    0.0000 C   0  0  0  0  0  0  0  0  0  0  0  0
    0.1120   -2.2807    0.0000 O   0  0  0  0  0  0  0  0  0  0  0  0
    1.3495   -2.9951    0.0000 C   0  0  0  0  0  0  0  0  0  0  0  0
  2  1  1  0  0  0  0
  2  3  1  0  0  0  0
  4  3  1  0  0  0  0
  5  4  1  0  0  0  0
  5  6  1  0  0  0  0
  6  1  1  1  0  0  0
  5  7  1  0  0  0  0
  7  8  1  0  0  0  0
  8  9  4  0  0  0  0
 10  9  1  0  0  0  0
  6 10  1  0  0  0  0
  8 11  4  0  0  0  0
 11 12  4  0  0  0  0
 12 13  4  0  0  0  0
 13 14  4  0  0  0  0
 14  9  4  0  0  0  0
  2 15  1  6  0  0  0
 15 16  1  0  0  0  0
 10 17  1  6  0  0  0
 14 18  2  0  0  0  0
 12 19  1  0  0  0  0
 19 20  4  0  0  0  0
 20 21  4  0  0  0  0
 21 22  4  0  0  0  0
 22 23  4  0  0  0  0
 23 24  4  0  0  0  0
 24 19  4  0  0  0  0
  5 25  1  6  0  0  0
 15 26  1  6  0  0  0
 15 28  1  1  0  0  0
  4 32  1  6  0  0  0
 32 34  1  0  0  0  0
 33 34  2  0  0  0  0
 34 35  1  0  0  0  0
 28 30  1  0  0  0  0
 29 30  2  0  0  0  0
 30 31  1  0  0  0  0
 16 27  1  0  0  0  0
 27 36  1  0  0  0  0
 36 38  1  0  0  0  0
 36 37  2  0  0  0  0
M  END
> <From>
www.bindingDB.org

> <BindingDB Reactant_set_id>
765834

> <Ligand InChI>
InChI=1S/C27H31NO10/c1-14(29)34-13-26(4,37-16(3)31)18-9-19-24(32)23-21(38-27(19,5)22(10-18)35-15(2)30)11-20(36-25(23)33)17-7-6-8-28-12-17/h6-8,11-12,18-19,22,24,32H,9-10,13H2,1-5H3/t18-,19+,22-,24+,26+,27-/m1/s1

> <Ligand InChI Key>
NIGGKHQHUNJNPM-VFSWFUIWSA-N

> <BindingDB MonomerID>
383184

> <BindingDB Ligand Name>
US10278962, Compound 22

> <Target Name>
Sterol O-acyltransferase 2

> <Target Source Organism According to Curator or DataSource>


> <Ki (nM)>


> <IC50 (nM)>
 86.0

> <Kd (nM)>


> <EC50 (nM)>


> <kon (M-1-s-1)>


> <koff (s-1)>


> <pH>


> <Temp (C)>


> <Curation/DataSource>
US Patent

> <Article DOI>


> <BindingDB Entry DOI>
10.7270/Q2CF9SF8

> <PMID>


> <PubChem AID>
aid1798542

> <Patent Number>
US10278962

> <Authors>
Nan, F; Li, B; Zhan, Y; Zhang, X; Xiong, Y; Hu, X; Zhang, Y

> <Institution>
Shanghai Institute of Materia Medica, Chinese Academy of Sciences

> <Link to Ligand in BindingDB>
http://www.bindingdb.org/bind/chemsearch/marvin/MolStructure.jsp?monomerid=383184

> <Link to Target in BindingDB>
http://www.bindingdb.org/jsp/dbsearch/PrimarySearch_ki.jsp?energyterm=kJ/mole&tag=pol&polymerid=7773&target=Sterol+O-acyltransferase+2&column=ki&startPg=0&Increment=50&submit=Search

> <Link to Ligand-Target Pair in BindingDB>
http://www.bindingdb.org/jsp/dbsearch/PrimarySearch_ki.jsp?energyterm=kJ/mole&tag=r21&monomerid=383184&enzyme=Sterol+O-acyltransferase+2&column=ki&startPg=0&Increment=50&submit=Search

> <Ligand HET ID in PDB>


> <PDB ID(s) for Ligand-Target Complex>


> <PubChem CID>
134188227

> <PubChem SID>
404852478

> <ChEBI ID of Ligand>


> <ChEMBL ID of Ligand>


> <DrugBank ID of Ligand>


> <IUPHAR_GRAC ID of Ligand>


> <KEGG ID of Ligand>


> <ZINC ID of Ligand>


> <Number of Protein Chains in Target (>1 implies a multichain complex)>
1

> <BindingDB Target Chain Sequence>
MEPGGARLRLQRTEGLGGERERQPCGDGNTETHRAPDLVQWTRHMEAVKAQLLEQAQGQLRELLDRAMREAIQSYPSQDKPLPPPPPGSLSRTQEPSLGKQKVFIIRKSLLDELMEVQHFRTIYHMFIAGLCVFIISTLAIDFIDEGRLLLEFDLLIFSFGQLPLALVTWVPMFLSTLLAPYQALRLWARGTWTQATGLGCALLAAHAVVLCALPVHVAVEHQLPPASRCVLVFEQVRFLMKSYSFLREAVPGTLRARRGEGIQAPSFSSYLYFLFCPTLIYRETYPRTPYVRWNYVAKNFAQALGCVLYACFILGRLCVPVFANMSREPFSTRALVLSILHATLPGIFMLLLIFFAFLHCWLNAFAEMLRFGDRMFYRDWWNSTSFSNYYRTWNVVVHDWLYSYVYQDGLRLLGARARGVAMLGVFLVSAVAHEYIFCFVLGFFYPVMLILFLVIGGMLNFMMHDQRTGPAWNVLMWTMLFLGQGIQVSLYCQEWYARRHCPLPQATFWGLVTPRSWSCHT

> <PDB ID(s) of Target Chain>


> <UniProt (SwissProt) Recommended Name of Target Chain>
Sterol O-acyltransferase 2

> <UniProt (SwissProt) Entry Name of Target Chain>
ACAT-2

> <UniProt (SwissProt) Primary ID of Target Chain>
O75908

> <UniProt (SwissProt) Secondary ID(s) of Target Chain>
F5H7W4 I6L9H9 Q4VB99 Q4VBA1 Q96TD4 Q9UNR2

> <UniProt (SwissProt) Alternative ID(s) of Target Chain>


> <UniProt (TrEMBL) Submitted Name of Target Chain>


> <UniProt (TrEMBL) Entry Name of Target Chain>


> <UniProt (TrEMBL) Primary ID of Target Chain>


> <UniProt (TrEMBL) Secondary ID(s) of Target Chain>


> <UniProt (TrEMBL) Alternative ID(s) of Target Chain>


$$$$
00049001.cdx
  Mrv0541 12012113462D          

 38 41  0  0  0  0            999 V2000
    1.1581   -0.8517    0.0000 C   0  0  0  0  0  0  0  0  0  0  0  0
    1.8726   -0.4392    0.0000 C   0  0  2  0  0  0  0  0  0  0  0  0
    1.8726    0.3858    0.0000 C   0  0  0  0  0  0  0  0  0  0  0  0
    1.1581    0.7983    0.0000 C   0  0  2  0  0  0  0  0  0  0  0  0
    0.4436    0.3858    0.0000 C   0  0  1  0  0  0  0  0  0  0  0  0
    0.4436   -0.4392    0.0000 C   0  0  2  0  0  0  0  0  0  0  0  0
   -0.2708    0.7983    0.0000 O   0  0  0  0  0  0  0  0  0  0  0  0
   -0.9853    0.3858    0.0000 C   0  0  0  0  0  0  0  0  0  0  0  0
   -0.9853   -0.4392    0.0000 C   0  0  0  0  0  0  0  0  0  0  0  0
   -0.2708   -0.8517    0.0000 C   0  0  1  0  0  0  0  0  0  0  0  0
   -1.6998    0.7983    0.0000 C   0  0  0  0  0  0  0  0  0  0  0  0
   -2.4143    0.3858    0.0000 C   0  0  0  0  0  0  0  0  0  0  0  0
   -2.4143   -0.4392    0.0000 O   0  0  0  0  0  0  0  0  0  0  0  0
   -1.6998   -0.8517    0.0000 C   0  0  0  0  0  0  0  0  0  0  0  0
    2.5870   -0.8517    0.0000 C   0  0  1  0  0  0  0  0  0  0  0  0
    2.1745   -1.5662    0.0000 C   0  0  0  0  0  0  0  0  0  0  0  0
   -0.2708   -1.6767    0.0000 O   0  0  0  0  0  0  0  0  0  0  0  0
   -1.6998   -1.6767    0.0000 O   0  0  0  0  0  0  0  0  0  0  0  0
   -3.1287    0.7983    0.0000 C   0  0  0  0  0  0  0  0  0  0  0  0
   -3.8432    0.3858    0.0000 C   0  0  0  0  0  0  0  0  0  0  0  0
   -4.5577    0.7983    0.0000 N   0  0  0  0  0  0  0  0  0  0  0  0
   -4.5577    1.6233    0.0000 C   0  0  0  0  0  0  0  0  0  0  0  0
   -3.8432    2.0358    0.0000 C   0  0  0  0  0  0  0  0  0  0  0  0
   -3.1287    1.6233    0.0000 C   0  0  0  0  0  0  0  0  0  0  0  0
    0.4436    1.2108    0.0000 C   0  0  0  0  0  0  0  0  0  0  0  0
    2.9995   -0.1373    0.0000 C   0  0  0  0  0  0  0  0  0  0  0  0
    1.3495   -1.5662    0.0000 O   0  0  0  0  0  0  0  0  0  0  0  0
    3.3015   -1.2642    0.0000 O   0  0  0  0  0  0  0  0  0  0  0  0
    4.0160   -2.5017    0.0000 O   0  0  0  0  0  0  0  0  0  0  0  0
    3.3015   -2.0892    0.0000 C   0  0  0  0  0  0  0  0  0  0  0  0
    2.5870   -2.5017    0.0000 C   0  0  0  0  0  0  0  0  0  0  0  0
    1.1581    1.6233    0.0000 O   0  0  0  0  0  0  0  0  0  0  0  0
   -0.2708    1.6233    0.0000 O   0  0  0  0  0  0  0  0  0  0  0  0
    0.4436    2.0358    0.0000 C   0  0  0  0  0  0  0  0  0  0  0  0
    0.4436    2.8608    0.0000 C   0  0  0  0  0  0  0  0  0  0  0  0
    0.9370   -2.2807    0.0000 C   0  0  0  0  0  0  0  0  0  0  0  0
    0.1120   -2.2807    0.0000 O   0  0  0  0  0  0  0  0  0  0  0  0
    1.3495   -2.9951    0.0000 C   0  0  0  0  0  0  0  0  0  0  0  0
  2  1  1  0  0  0  0
  2  3  1  0  0  0  0
  4  3  1  0  0  0  0
  5  4  1  0  0  0  0
  5  6  1  0  0  0  0
  6  1  1  1  0  0  0
  5  7  1  0  0  0  0
  7  8  1  0  0  0  0
  8  9  4  0  0  0  0
 10  9  1  0  0  0  0
  6 10  1  0  0  0  0
  8 11  4  0  0  0  0
 11 12  4  0  0  0  0
 12 13  4  0  0  0  0
 13 14  4  0  0  0  0
 14  9  4  0  0  0  0
  2 15  1  6  0  0  0
 15 16  1  0  0  0  0
 10 17  1  6  0  0  0
 14 18  2  0  0  0  0
 12 19  1  0  0  0  0
 19 20  4  0  0  0  0
 20 21  4  0  0  0  0
 21 22  4  0  0  0  0
 22 23  4  0  0  0  0
 23 24  4  0  0  0  0
 24 19  4  0  0  0  0
  5 25  1  6  0  0  0
 15 26  1  6  0  0  0
 15 28  1  1  0  0  0
  4 32  1  6  0  0  0
 32 34  1  0  0  0  0
 33 34  2  0  0  0  0
 34 35  1  0  0  0  0
 28 30  1  0  0  0  0
 29 30  2  0  0  0  0
 30 31  1  0  0  0  0
 16 27  1  0  0  0  0
 27 36  1  0  0  0  0
 36 38  1  0  0  0  0
 36 37  2  0  0  0  0
M  END
> <From>
www.bindingDB.org

> <BindingDB Reactant_set_id>
765849

> <Ligand InChI>
InChI=1S/C27H31NO10/c1-14(29)34-13-26(4,37-16(3)31)18-9-19-24(32)23-21(38-27(19,5)22(10-18)35-15(2)30)11-20(36-25(23)33)17-7-6-8-28-12-17/h6-8,11-12,18-19,22,24,32H,9-10,13H2,1-5H3/t18-,19+,22-,24+,26+,27-/m1/s1

> <Ligand InChI Key>
NIGGKHQHUNJNPM-VFSWFUIWSA-N

> <BindingDB MonomerID>
383184

> <BindingDB Ligand Name>
US10278962, Compound 22

> <Target Name>
Sterol O-acyltransferase 2

> <Target Source Organism According to Curator or DataSource>


> <Ki (nM)>


> <IC50 (nM)>
 90.0

> <Kd (nM)>


> <EC50 (nM)>


> <kon (M-1-s-1)>


> <koff (s-1)>


> <pH>


> <Temp (C)>


> <Curation/DataSource>
US Patent

> <Article DOI>


> <BindingDB Entry DOI>
10.7270/Q2CF9SF8

> <PMID>


> <PubChem AID>
aid1798542

> <Patent Number>
US10278962

> <Authors>
Nan, F; Li, B; Zhan, Y; Zhang, X; Xiong, Y; Hu, X; Zhang, Y

> <Institution>
Shanghai Institute of Materia Medica, Chinese Academy of Sciences

> <Link to Ligand in BindingDB>
http://www.bindingdb.org/bind/chemsearch/marvin/MolStructure.jsp?monomerid=383184

> <Link to Target in BindingDB>
http://www.bindingdb.org/jsp/dbsearch/PrimarySearch_ki.jsp?energyterm=kJ/mole&tag=pol&polymerid=7773&target=Sterol+O-acyltransferase+2&column=ki&startPg=0&Increment=50&submit=Search

> <Link to Ligand-Target Pair in BindingDB>
http://www.bindingdb.org/jsp/dbsearch/PrimarySearch_ki.jsp?energyterm=kJ/mole&tag=r21&monomerid=383184&enzyme=Sterol+O-acyltransferase+2&column=ki&startPg=0&Increment=50&submit=Search

> <Ligand HET ID in PDB>


> <PDB ID(s) for Ligand-Target Complex>


> <PubChem CID>
134188227

> <PubChem SID>
404852478

> <ChEBI ID of Ligand>


> <ChEMBL ID of Ligand>


> <DrugBank ID of Ligand>


> <IUPHAR_GRAC ID of Ligand>


> <KEGG ID of Ligand>


> <ZINC ID of Ligand>


> <Number of Protein Chains in Target (>1 implies a multichain complex)>
1

> <BindingDB Target Chain Sequence>
MEPGGARLRLQRTEGLGGERERQPCGDGNTETHRAPDLVQWTRHMEAVKAQLLEQAQGQLRELLDRAMREAIQSYPSQDKPLPPPPPGSLSRTQEPSLGKQKVFIIRKSLLDELMEVQHFRTIYHMFIAGLCVFIISTLAIDFIDEGRLLLEFDLLIFSFGQLPLALVTWVPMFLSTLLAPYQALRLWARGTWTQATGLGCALLAAHAVVLCALPVHVAVEHQLPPASRCVLVFEQVRFLMKSYSFLREAVPGTLRARRGEGIQAPSFSSYLYFLFCPTLIYRETYPRTPYVRWNYVAKNFAQALGCVLYACFILGRLCVPVFANMSREPFSTRALVLSILHATLPGIFMLLLIFFAFLHCWLNAFAEMLRFGDRMFYRDWWNSTSFSNYYRTWNVVVHDWLYSYVYQDGLRLLGARARGVAMLGVFLVSAVAHEYIFCFVLGFFYPVMLILFLVIGGMLNFMMHDQRTGPAWNVLMWTMLFLGQGIQVSLYCQEWYARRHCPLPQATFWGLVTPRSWSCHT

> <PDB ID(s) of Target Chain>


> <UniProt (SwissProt) Recommended Name of Target Chain>
Sterol O-acyltransferase 2

> <UniProt (SwissProt) Entry Name of Target Chain>
ACAT-2

> <UniProt (SwissProt) Primary ID of Target Chain>
O75908

> <UniProt (SwissProt) Secondary ID(s) of Target Chain>
F5H7W4 I6L9H9 Q4VB99 Q4VBA1 Q96TD4 Q9UNR2

> <UniProt (SwissProt) Alternative ID(s) of Target Chain>


> <UniProt (TrEMBL) Submitted Name of Target Chain>


> <UniProt (TrEMBL) Entry Name of Target Chain>


> <UniProt (TrEMBL) Primary ID of Target Chain>


> <UniProt (TrEMBL) Secondary ID(s) of Target Chain>


> <UniProt (TrEMBL) Alternative ID(s) of Target Chain>


$$$$
00038001.cdx
  Mrv0541 12012113462D          

 39 43  0  0  0  0            999 V2000
    0.9630  -10.1390    0.0000 C   0  0  0  0  0  0  0  0  0  0  0  0
    0.9630  -10.9640    0.0000 C   0  0  1  0  0  0  0  0  0  0  0  0
    1.6775  -11.3765    0.0000 C   0  0  0  0  0  0  0  0  0  0  0  0
    2.3920  -10.9640    0.0000 C   0  0  1  0  0  0  0  0  0  0  0  0
    2.3920  -10.1390    0.0000 C   0  0  2  0  0  0  0  0  0  0  0  0
    1.6775   -9.7265    0.0000 C   0  0  2  0  0  0  0  0  0  0  0  0
    1.6775   -8.9015    0.0000 C   0  0  0  0  0  0  0  0  0  0  0  0
    3.1065   -9.7265    0.0000 O   0  0  0  0  0  0  0  0  0  0  0  0
    0.2486  -11.3765    0.0000 C   0  0  3  0  0  0  0  0  0  0  0  0
   -0.4659  -10.9640    0.0000 C   0  0  0  0  0  0  0  0  0  0  0  0
    0.2486  -12.2015    0.0000 O   0  0  0  0  0  0  0  0  0  0  0  0
    3.1065  -11.3765    0.0000 O   0  0  0  0  0  0  0  0  0  0  0  0
    0.9630   -8.4890    0.0000 O   0  0  0  0  0  0  0  0  0  0  0  0
    2.3920   -8.4890    0.0000 C   0  0  0  0  0  0  0  0  0  0  0  0
    3.1065   -8.9015    0.0000 C   0  0  0  0  0  0  0  0  0  0  0  0
    3.8209   -8.4890    0.0000 C   0  0  0  0  0  0  0  0  0  0  0  0
    2.3920   -9.3140    0.0000 C   0  0  0  0  0  0  0  0  0  0  0  0
    3.8209   -7.6640    0.0000 C   0  0  0  0  0  0  0  0  0  0  0  0
    3.1065   -7.2515    0.0000 O   0  0  0  0  0  0  0  0  0  0  0  0
    2.3920   -7.6640    0.0000 C   0  0  0  0  0  0  0  0  0  0  0  0
    1.6775   -7.2515    0.0000 O   0  0  0  0  0  0  0  0  0  0  0  0
    4.5354   -7.2515    0.0000 C   0  0  0  0  0  0  0  0  0  0  0  0
    5.2499   -7.6640    0.0000 C   0  0  0  0  0  0  0  0  0  0  0  0
    5.9643   -7.2515    0.0000 N   0  0  0  0  0  0  0  0  0  0  0  0
    5.9643   -6.4265    0.0000 C   0  0  0  0  0  0  0  0  0  0  0  0
    4.5354   -6.4265    0.0000 C   0  0  0  0  0  0  0  0  0  0  0  0
   -1.1804  -11.3765    0.0000 O   0  0  0  0  0  0  0  0  0  0  0  0
    0.2486  -10.5515    0.0000 C   0  0  0  0  0  0  0  0  0  0  0  0
    5.2454   -6.0218    0.0000 C   0  0  0  0  0  0  0  0  0  0  0  0
   -1.8948  -10.9640    0.0000 C   0  0  0  0  0  0  0  0  0  0  0  0
   -2.6093  -11.3765    0.0000 C   0  0  0  0  0  0  0  0  0  0  0  0
   -1.8948  -10.1390    0.0000 O   0  0  0  0  0  0  0  0  0  0  0  0
   -3.3238  -10.9640    0.0000 C   0  0  0  0  0  0  0  0  0  0  0  0
   -4.0383  -11.3765    0.0000 C   0  0  0  0  0  0  0  0  0  0  0  0
   -4.0640  -12.2162    0.0000 C   0  0  0  0  0  0  0  0  0  0  0  0
   -3.3238  -12.6140    0.0000 C   0  0  0  0  0  0  0  0  0  0  0  0
   -2.6093  -12.2015    0.0000 C   0  0  0  0  0  0  0  0  0  0  0  0
   -4.7784  -12.6287    0.0000 C   0  0  0  0  0  0  0  0  0  0  0  0
   -5.4929  -13.0412    0.0000 N   0  0  0  0  0  0  0  0  0  0  0  0
  2  1  1  0  0  0  0
  2  3  1  0  0  0  0
  4  3  1  0  0  0  0
  5  4  1  0  0  0  0
  5  6  1  0  0  0  0
  6  1  1  1  0  0  0
  6  7  1  0  0  0  0
  5  8  1  0  0  0  0
  2  9  1  1  0  0  0
  9 10  1  4  0  0  0
  9 11  1  0  0  0  0
  4 12  1  1  0  0  0
  7 13  2  0  0  0  0
  7 14  1  0  0  0  0
 14 15  4  0  0  0  0
 15 16  4  0  0  0  0
  8 15  1  0  0  0  0
  5 17  1  1  0  0  0
 16 18  4  0  0  0  0
 18 19  4  0  0  0  0
 19 20  4  0  0  0  0
 20 14  4  0  0  0  0
 20 21  2  0  0  0  0
 18 22  1  0  0  0  0
 22 23  4  0  0  0  0
 23 24  4  0  0  0  0
 24 25  4  0  0  0  0
 26 22  4  0  0  0  0
 10 27  1  0  0  0  0
  9 28  1  0  0  0  0
 25 29  4  0  0  0  0
 29 26  4  0  0  0  0
 27 30  1  0  0  0  0
 30 31  1  0  0  0  0
 30 32  2  0  0  0  0
 31 33  4  0  0  0  0
 33 34  4  0  0  0  0
 34 35  4  0  0  0  0
 35 36  4  0  0  0  0
 36 37  4  0  0  0  0
 37 31  4  0  0  0  0
 35 38  1  0  0  0  0
 38 39  3  0  0  0  0
M  END
> <From>
www.bindingDB.org

> <BindingDB Reactant_set_id>
765830

> <Ligand InChI>
InChI=1S/C29H26N2O8/c1-28(36,15-37-26(34)17-7-5-16(13-30)6-8-17)19-10-20-25(33)24-22(39-29(20,2)23(32)11-19)12-21(38-27(24)35)18-4-3-9-31-14-18/h3-9,12,14,19-20,23,32,36H,10-11,15H2,1-2H3/t19-,20-,23-,28?,29-/m0/s1

> <Ligand InChI Key>
HXFVTRKRSBCWFS-UKGGDCOSSA-N

> <BindingDB MonomerID>
383179

> <BindingDB Ligand Name>
US10278962, Compound 14

> <Target Name>
Sterol O-acyltransferase 2

> <Target Source Organism According to Curator or DataSource>


> <Ki (nM)>


> <IC50 (nM)>
 103

> <Kd (nM)>


> <EC50 (nM)>


> <kon (M-1-s-1)>


> <koff (s-1)>


> <pH>


> <Temp (C)>


> <Curation/DataSource>
US Patent

> <Article DOI>


> <BindingDB Entry DOI>
10.7270/Q2CF9SF8

> <PMID>


> <PubChem AID>
aid1798542

> <Patent Number>
US10278962

> <Authors>
Nan, F; Li, B; Zhan, Y; Zhang, X; Xiong, Y; Hu, X; Zhang, Y

> <Institution>
Shanghai Institute of Materia Medica, Chinese Academy of Sciences

> <Link to Ligand in BindingDB>
http://www.bindingdb.org/bind/chemsearch/marvin/MolStructure.jsp?monomerid=383179

> <Link to Target in BindingDB>
http://www.bindingdb.org/jsp/dbsearch/PrimarySearch_ki.jsp?energyterm=kJ/mole&tag=pol&polymerid=7773&target=Sterol+O-acyltransferase+2&column=ki&startPg=0&Increment=50&submit=Search

> <Link to Ligand-Target Pair in BindingDB>
http://www.bindingdb.org/jsp/dbsearch/PrimarySearch_ki.jsp?energyterm=kJ/mole&tag=r21&monomerid=383179&enzyme=Sterol+O-acyltransferase+2&column=ki&startPg=0&Increment=50&submit=Search

> <Ligand HET ID in PDB>


> <PDB ID(s) for Ligand-Target Complex>


> <PubChem CID>
134309786

> <PubChem SID>
404852474

> <ChEBI ID of Ligand>


> <ChEMBL ID of Ligand>


> <DrugBank ID of Ligand>


> <IUPHAR_GRAC ID of Ligand>


> <KEGG ID of Ligand>


> <ZINC ID of Ligand>


> <Number of Protein Chains in Target (>1 implies a multichain complex)>
1

> <BindingDB Target Chain Sequence>
MEPGGARLRLQRTEGLGGERERQPCGDGNTETHRAPDLVQWTRHMEAVKAQLLEQAQGQLRELLDRAMREAIQSYPSQDKPLPPPPPGSLSRTQEPSLGKQKVFIIRKSLLDELMEVQHFRTIYHMFIAGLCVFIISTLAIDFIDEGRLLLEFDLLIFSFGQLPLALVTWVPMFLSTLLAPYQALRLWARGTWTQATGLGCALLAAHAVVLCALPVHVAVEHQLPPASRCVLVFEQVRFLMKSYSFLREAVPGTLRARRGEGIQAPSFSSYLYFLFCPTLIYRETYPRTPYVRWNYVAKNFAQALGCVLYACFILGRLCVPVFANMSREPFSTRALVLSILHATLPGIFMLLLIFFAFLHCWLNAFAEMLRFGDRMFYRDWWNSTSFSNYYRTWNVVVHDWLYSYVYQDGLRLLGARARGVAMLGVFLVSAVAHEYIFCFVLGFFYPVMLILFLVIGGMLNFMMHDQRTGPAWNVLMWTMLFLGQGIQVSLYCQEWYARRHCPLPQATFWGLVTPRSWSCHT

> <PDB ID(s) of Target Chain>


> <UniProt (SwissProt) Recommended Name of Target Chain>
Sterol O-acyltransferase 2

> <UniProt (SwissProt) Entry Name of Target Chain>
ACAT-2

> <UniProt (SwissProt) Primary ID of Target Chain>
O75908

> <UniProt (SwissProt) Secondary ID(s) of Target Chain>
F5H7W4 I6L9H9 Q4VB99 Q4VBA1 Q96TD4 Q9UNR2

> <UniProt (SwissProt) Alternative ID(s) of Target Chain>


> <UniProt (TrEMBL) Submitted Name of Target Chain>


> <UniProt (TrEMBL) Entry Name of Target Chain>


> <UniProt (TrEMBL) Primary ID of Target Chain>


> <UniProt (TrEMBL) Secondary ID(s) of Target Chain>


> <UniProt (TrEMBL) Alternative ID(s) of Target Chain>


$$$$
00026001.cdx
  Mrv0541 06191611392D          

 33 34  0  0  0  0            999 V2000
   -6.0730   -0.4125    0.0000 C   0  0  0  0  0  0  0  0  0  0  0  0
   -6.0730   -1.2375    0.0000 C   0  0  0  0  0  0  0  0  0  0  0  0
   -5.3585   -1.6500    0.0000 C   0  0  0  0  0  0  0  0  0  0  0  0
   -4.6441   -1.2375    0.0000 C   0  0  0  0  0  0  0  0  0  0  0  0
   -4.6441   -0.4125    0.0000 C   0  0  0  0  0  0  0  0  0  0  0  0
   -5.3585    0.0000    0.0000 C   0  0  0  0  0  0  0  0  0  0  0  0
   -6.7875    0.0000    0.0000 C   0  0  0  0  0  0  0  0  0  0  0  0
   -6.7875   -1.6500    0.0000 O   0  0  0  0  0  0  0  0  0  0  0  0
   -5.3585   -2.4750    0.0000 C   0  0  0  0  0  0  0  0  0  0  0  0
   -3.9296   -1.6500    0.0000 C   0  0  0  0  0  0  0  0  0  0  0  0
   -3.9296    0.0000    0.0000 N   0  0  0  0  0  0  0  0  0  0  0  0
   -3.2151   -0.4125    0.0000 C   0  0  0  0  0  0  0  0  0  0  0  0
   -2.5006    0.0000    0.0000 C   0  0  1  0  0  0  0  0  0  0  0  0
   -3.2151   -1.2375    0.0000 O   0  0  0  0  0  0  0  0  0  0  0  0
   -1.7862   -0.4125    0.0000 S   0  0  0  0  0  0  0  0  0  0  0  0
   -2.5006    0.8250    0.0000 C   0  0  0  0  0  0  0  0  0  0  0  0
   -1.7862    1.2375    0.0000 C   0  0  0  0  0  0  0  0  0  0  0  0
   -1.7862    2.0625    0.0000 C   0  0  0  0  0  0  0  0  0  0  0  0
   -2.5006    2.4750    0.0000 C   0  0  0  0  0  0  0  0  0  0  0  0
   -3.2151    2.0625    0.0000 C   0  0  0  0  0  0  0  0  0  0  0  0
   -3.2151    1.2375    0.0000 C   0  0  0  0  0  0  0  0  0  0  0  0
   -1.0717    0.0000    0.0000 C   0  0  0  0  0  0  0  0  0  0  0  0
   -0.3572   -0.4125    0.0000 C   0  0  0  0  0  0  0  0  0  0  0  0
    0.3572    0.0000    0.0000 C   0  0  0  0  0  0  0  0  0  0  0  0
    1.0717   -0.4125    0.0000 C   0  0  0  0  0  0  0  0  0  0  0  0
    1.7862    0.0000    0.0000 C   0  0  0  0  0  0  0  0  0  0  0  0
    2.5006   -0.4125    0.0000 C   0  0  0  0  0  0  0  0  0  0  0  0
    3.2151    0.0000    0.0000 C   0  0  0  0  0  0  0  0  0  0  0  0
    3.9296   -0.4125    0.0000 C   0  0  0  0  0  0  0  0  0  0  0  0
    4.6441    0.0000    0.0000 C   0  0  0  0  0  0  0  0  0  0  0  0
    5.3585   -0.4125    0.0000 C   0  0  0  0  0  0  0  0  0  0  0  0
    6.0730    0.0000    0.0000 C   0  0  0  0  0  0  0  0  0  0  0  0
    6.7875   -0.4125    0.0000 C   0  0  0  0  0  0  0  0  0  0  0  0
  1  2  4  0  0  0  0
  2  3  4  0  0  0  0
  3  4  4  0  0  0  0
  4  5  4  0  0  0  0
  5  6  4  0  0  0  0
  6  1  4  0  0  0  0
  1  7  1  0  0  0  0
  2  8  1  0  0  0  0
  3  9  1  0  0  0  0
  4 10  1  0  0  0  0
  5 11  1  0  0  0  0
 11 12  1  0  0  0  0
 13 12  1  0  0  0  0
 12 14  2  0  0  0  0
 13 15  1  6  0  0  0
 13 16  1  0  0  0  0
 16 17  4  0  0  0  0
 17 18  4  0  0  0  0
 18 19  4  0  0  0  0
 19 20  4  0  0  0  0
 20 21  4  0  0  0  0
 21 16  4  0  0  0  0
 15 22  1  0  0  0  0
 22 23  1  0  0  0  0
 23 24  1  0  0  0  0
 24 25  1  0  0  0  0
 25 26  1  0  0  0  0
 26 27  1  0  0  0  0
 27 28  1  0  0  0  0
 28 29  1  0  0  0  0
 29 30  1  0  0  0  0
 30 31  1  0  0  0  0
 31 32  1  0  0  0  0
 32 33  1  0  0  0  0
M  END
> <From>
www.bindingDB.org

> <BindingDB Reactant_set_id>
330432

> <Ligand InChI>
InChI=1S/C29H43NO2S/c1-5-6-7-8-9-10-11-12-13-17-20-33-28(25-18-15-14-16-19-25)29(32)30-26-21-22(2)27(31)24(4)23(26)3/h14-16,18-19,21,28,31H,5-13,17,20H2,1-4H3,(H,30,32)/t28-/m0/s1

> <Ligand InChI Key>
ZXEIEKDGPVTZLD-NDEPHWFRSA-N

> <BindingDB MonomerID>
182848

> <BindingDB Ligand Name>
US9149492, Eflucimibe (F12511)

> <Target Name>
Sterol O-acyltransferase 2

> <Target Source Organism According to Curator or DataSource>


> <Ki (nM)>


> <IC50 (nM)>
 110

> <Kd (nM)>


> <EC50 (nM)>


> <kon (M-1-s-1)>


> <koff (s-1)>


> <pH>


> <Temp (C)>


> <Curation/DataSource>
US Patent

> <Article DOI>


> <BindingDB Entry DOI>
10.7270/Q2N015BF

> <PMID>


> <PubChem AID>
aid1801692

> <Patent Number>
US9149492

> <Authors>
Chang, T; Chang, CC; Shibuya, Y; Bryleva, E; Murphy, S; Rogers, MA

> <Institution>
Dartmouth College

> <Link to Ligand in BindingDB>
http://www.bindingdb.org/bind/chemsearch/marvin/MolStructure.jsp?monomerid=182848

> <Link to Target in BindingDB>
http://www.bindingdb.org/jsp/dbsearch/PrimarySearch_ki.jsp?energyterm=kJ/mole&tag=pol&polymerid=7773&target=Sterol+O-acyltransferase+2&column=ki&startPg=0&Increment=50&submit=Search

> <Link to Ligand-Target Pair in BindingDB>
http://www.bindingdb.org/jsp/dbsearch/PrimarySearch_ki.jsp?energyterm=kJ/mole&tag=r21&monomerid=182848&enzyme=Sterol+O-acyltransferase+2&column=ki&startPg=0&Increment=50&submit=Search

> <Ligand HET ID in PDB>


> <PDB ID(s) for Ligand-Target Complex>


> <PubChem CID>
9804740

> <PubChem SID>
313634371

> <ChEBI ID of Ligand>


> <ChEMBL ID of Ligand>


> <DrugBank ID of Ligand>


> <IUPHAR_GRAC ID of Ligand>


> <KEGG ID of Ligand>


> <ZINC ID of Ligand>


> <Number of Protein Chains in Target (>1 implies a multichain complex)>
1

> <BindingDB Target Chain Sequence>
MEPGGARLRLQRTEGLGGERERQPCGDGNTETHRAPDLVQWTRHMEAVKAQLLEQAQGQLRELLDRAMREAIQSYPSQDKPLPPPPPGSLSRTQEPSLGKQKVFIIRKSLLDELMEVQHFRTIYHMFIAGLCVFIISTLAIDFIDEGRLLLEFDLLIFSFGQLPLALVTWVPMFLSTLLAPYQALRLWARGTWTQATGLGCALLAAHAVVLCALPVHVAVEHQLPPASRCVLVFEQVRFLMKSYSFLREAVPGTLRARRGEGIQAPSFSSYLYFLFCPTLIYRETYPRTPYVRWNYVAKNFAQALGCVLYACFILGRLCVPVFANMSREPFSTRALVLSILHATLPGIFMLLLIFFAFLHCWLNAFAEMLRFGDRMFYRDWWNSTSFSNYYRTWNVVVHDWLYSYVYQDGLRLLGARARGVAMLGVFLVSAVAHEYIFCFVLGFFYPVMLILFLVIGGMLNFMMHDQRTGPAWNVLMWTMLFLGQGIQVSLYCQEWYARRHCPLPQATFWGLVTPRSWSCHT

> <PDB ID(s) of Target Chain>


> <UniProt (SwissProt) Recommended Name of Target Chain>
Sterol O-acyltransferase 2

> <UniProt (SwissProt) Entry Name of Target Chain>
ACAT-2

> <UniProt (SwissProt) Primary ID of Target Chain>
O75908

> <UniProt (SwissProt) Secondary ID(s) of Target Chain>
F5H7W4 I6L9H9 Q4VB99 Q4VBA1 Q96TD4 Q9UNR2

> <UniProt (SwissProt) Alternative ID(s) of Target Chain>


> <UniProt (TrEMBL) Submitted Name of Target Chain>


> <UniProt (TrEMBL) Entry Name of Target Chain>


> <UniProt (TrEMBL) Primary ID of Target Chain>


> <UniProt (TrEMBL) Secondary ID(s) of Target Chain>


> <UniProt (TrEMBL) Alternative ID(s) of Target Chain>


$$$$

  Mrv0541 11241418062D          

 49 56  0  0  0  0            999 V2000
   20.3515   -4.2496    0.0000 C   0  0  0  0  0  0  0  0  0  0  0  0
   21.0642   -3.8326    0.0000 C   0  0  0  0  0  0  0  0  0  0  0  0
   21.7768   -4.2496    0.0000 C   0  0  1  0  0  0  0  0  0  0  0  0
   21.7779   -5.0753    0.0000 C   0  0  1  0  0  0  0  0  0  0  0  0
   22.4896   -5.4851    0.0000 C   0  0  0  0  0  0  0  0  0  0  0  0
   23.2048   -5.0735    0.0000 C   0  0  1  0  0  0  0  0  0  0  0  0
   22.4875   -3.8336    0.0000 C   0  0  2  0  0  0  0  0  0  0  0  0
   23.1994   -4.2501    0.0000 C   0  0  2  0  0  0  0  0  0  0  0  0
   23.9121   -3.8441    0.0000 O   0  0  0  0  0  0  0  0  0  0  0  0
   22.4883   -3.0110    0.0000 C   0  0  2  0  0  0  0  0  0  0  0  0
   21.0642   -5.4841    0.0000 C   0  0  1  0  0  0  0  0  0  0  0  0
   20.3515   -5.0753    0.0000 C   0  0  1  0  0  0  0  0  0  0  0  0
   19.6451   -5.4859    0.0000 O   0  0  0  0  0  0  0  0  0  0  0  0
   19.6453   -6.3069    0.0000 C   0  0  1  0  0  0  0  0  0  0  0  0
   20.3579   -6.7155    0.0000 O   0  0  0  0  0  0  0  0  0  0  0  0
   21.0705   -6.3033    0.0000 C   0  0  0  0  0  0  0  0  0  0  0  0
   23.2072   -2.6033    0.0000 C   0  0  0  0  0  0  0  0  0  0  0  0
   23.9176   -3.0215    0.0000 C   0  0  0  0  0  0  0  0  0  0  0  0
   24.6308   -2.6175    0.0000 C   0  0  0  0  0  0  0  0  0  0  0  0
   24.6400   -1.7940    0.0000 C   0  0  0  0  0  0  0  0  0  0  0  0
   23.9297   -1.3758    0.0000 O   0  0  0  0  0  0  0  0  0  0  0  0
   23.2101   -1.7813    0.0000 C   0  0  0  0  0  0  0  0  0  0  0  0
   22.4980   -1.3635    0.0000 O   0  0  0  0  0  0  0  0  0  0  0  0
   21.7750   -2.5951    0.0000 O   0  0  0  0  0  0  0  0  0  0  0  0
   23.1915   -3.4239    0.0000 C   0  0  0  0  0  0  0  0  0  0  0  0
   23.9209   -5.4846    0.0000 O   0  0  0  0  0  0  0  0  0  0  0  0
   21.7694   -3.4239    0.0000 C   0  0  0  0  0  0  0  0  0  0  0  0
   21.0563   -4.6583    0.0000 C   0  0  0  0  0  0  0  0  0  0  0  0
   24.6350   -5.0700    0.0000 C   0  0  0  0  0  0  0  0  0  0  0  0
   25.3511   -5.4810    0.0000 C   0  0  0  0  0  0  0  0  0  0  0  0
   24.6329   -4.2442    0.0000 O   0  0  0  0  0  0  0  0  0  0  0  0
   25.3511   -6.3067    0.0000 C   0  0  0  0  0  0  0  0  0  0  0  0
   26.0664   -6.7177    0.0000 C   0  0  0  0  0  0  0  0  0  0  0  0
   26.7815   -6.3029    0.0000 C   0  0  0  0  0  0  0  0  0  0  0  0
   26.7767   -5.4729    0.0000 C   0  0  0  0  0  0  0  0  0  0  0  0
   26.0608   -5.0657    0.0000 C   0  0  0  0  0  0  0  0  0  0  0  0
   25.3595   -1.3888    0.0000 C   0  0  0  0  0  0  0  0  0  0  0  0
   26.0708   -1.8102    0.0000 C   0  0  0  0  0  0  0  0  0  0  0  0
   26.7894   -1.4050    0.0000 N   0  0  0  0  0  0  0  0  0  0  0  0
   26.7980   -0.5785    0.0000 C   0  0  0  0  0  0  0  0  0  0  0  0
   26.0819   -0.1588    0.0000 C   0  0  0  0  0  0  0  0  0  0  0  0
   25.3661   -0.5664    0.0000 C   0  0  0  0  0  0  0  0  0  0  0  0
   24.6364   -6.7204    0.0000 Cl  0  0  0  0  0  0  0  0  0  0  0  0
   18.9315   -6.7205    0.0000 C   0  0  0  0  0  0  0  0  0  0  0  0
   18.2170   -6.3080    0.0000 C   0  0  0  0  0  0  0  0  0  0  0  0
   17.5026   -6.7205    0.0000 C   0  0  0  0  0  0  0  0  0  0  0  0
   17.5026   -7.5456    0.0000 C   0  0  0  0  0  0  0  0  0  0  0  0
   18.2170   -7.9581    0.0000 C   0  0  0  0  0  0  0  0  0  0  0  0
   18.9315   -7.5456    0.0000 C   0  0  0  0  0  0  0  0  0  0  0  0
 12  1  1  0  0  0  0
  1  2  1  0  0  0  0
  4 11  1  0  0  0  0
  3  2  1  0  0  0  0
  3  4  1  0  0  0  0
  7  3  1  1  0  0  0
  4  5  1  1  0  0  0
  6  5  1  0  0  0  0
  8  6  1  0  0  0  0
  7  8  1  0  0  0  0
  7 10  1  0  0  0  0
  8  9  1  0  0  0  0
  9 18  1  0  0  0  0
 10 17  1  0  0  0  0
 11 12  1  0  0  0  0
 11 16  1  0  0  0  0
 12 13  1  1  0  0  0
 14 13  1  0  0  0  0
 14 15  1  0  0  0  0
 15 16  1  0  0  0  0
 17 18  2  0  0  0  0
 17 22  1  0  0  0  0
 18 19  1  0  0  0  0
 19 20  2  0  0  0  0
 20 21  1  0  0  0  0
 21 22  1  0  0  0  0
 22 23  2  0  0  0  0
 10 24  1  1  0  0  0
  8 25  1  1  0  0  0
  6 26  1  1  0  0  0
  3 27  1  1  0  0  0
 11 28  1  1  0  0  0
 26 29  1  0  0  0  0
 29 30  1  0  0  0  0
 29 31  2  0  0  0  0
 30 32  2  0  0  0  0
 32 33  1  0  0  0  0
 33 34  2  0  0  0  0
 34 35  1  0  0  0  0
 35 36  2  0  0  0  0
 36 30  1  0  0  0  0
 37 38  2  0  0  0  0
 38 39  1  0  0  0  0
 39 40  2  0  0  0  0
 40 41  1  0  0  0  0
 41 42  2  0  0  0  0
 42 37  1  0  0  0  0
 20 37  1  0  0  0  0
 32 43  1  0  0  0  0
 14 44  1  1  0  0  0
 49 44  2  0  0  0  0
 45 44  1  0  0  0  0
 45 46  2  0  0  0  0
 46 47  1  0  0  0  0
 47 48  2  0  0  0  0
 48 49  1  0  0  0  0
M  END
> <From>
www.bindingDB.org

> <BindingDB Reactant_set_id>
51068417

> <Ligand InChI>
InChI=1S/C39H38ClNO8/c1-37-16-15-29-38(2,21-45-36(48-29)22-10-5-4-6-11-22)28(37)19-30(47-34(43)24-13-7-8-14-25(24)40)39(3)33(37)32(42)31-27(49-39)18-26(46-35(31)44)23-12-9-17-41-20-23/h4-14,17-18,20,28-30,32-33,36,42H,15-16,19,21H2,1-3H3/t28-,29+,30+,32+,33-,36-,37+,38+,39-/m1/s1

> <Ligand InChI Key>
IQGHTAHBEYRWOM-MKSFZIRSSA-N

> <BindingDB MonomerID>
50436331

> <BindingDB Ligand Name>
CHEMBL2398801

> <Target Name>
Sterol O-acyltransferase 2

> <Target Source Organism According to Curator or DataSource>


> <Ki (nM)>


> <IC50 (nM)>
 110

> <Kd (nM)>


> <EC50 (nM)>


> <kon (M-1-s-1)>


> <koff (s-1)>


> <pH>


> <Temp (C)>


> <Curation/DataSource>
ChEMBL

> <Article DOI>
10.1016/j.bmcl.2013.04.075

> <BindingDB Entry DOI>
10.7270/Q2WD41Z9

> <PMID>
23711919

> <PubChem AID>


> <Patent Number>


> <Authors>
Ohtawa, M; Yamazaki, H; Ohte, S; Matsuda, D; Ohshiro, T; Rudel, LL; Omura, S; Tomoda, H; Nagamitsu, T

> <Institution>
Kitasato University

> <Link to Ligand in BindingDB>
http://www.bindingdb.org/bind/chemsearch/marvin/MolStructure.jsp?monomerid=50436331

> <Link to Target in BindingDB>
http://www.bindingdb.org/jsp/dbsearch/PrimarySearch_ki.jsp?energyterm=kJ/mole&tag=pol&polymerid=7773&target=Sterol+O-acyltransferase+2&column=ki&startPg=0&Increment=50&submit=Search

> <Link to Ligand-Target Pair in BindingDB>
http://www.bindingdb.org/jsp/dbsearch/PrimarySearch_ki.jsp?energyterm=kJ/mole&tag=r21&monomerid=50436331&enzyme=Sterol+O-acyltransferase+2&column=ki&startPg=0&Increment=50&submit=Search

> <Ligand HET ID in PDB>


> <PDB ID(s) for Ligand-Target Complex>


> <PubChem CID>
71682655

> <PubChem SID>
175448648

> <ChEBI ID of Ligand>


> <ChEMBL ID of Ligand>
CHEMBL2398801

> <DrugBank ID of Ligand>


> <IUPHAR_GRAC ID of Ligand>


> <KEGG ID of Ligand>


> <ZINC ID of Ligand>
ZINC96272244

> <Number of Protein Chains in Target (>1 implies a multichain complex)>
1

> <BindingDB Target Chain Sequence>
MEPGGARLRLQRTEGLGGERERQPCGDGNTETHRAPDLVQWTRHMEAVKAQLLEQAQGQLRELLDRAMREAIQSYPSQDKPLPPPPPGSLSRTQEPSLGKQKVFIIRKSLLDELMEVQHFRTIYHMFIAGLCVFIISTLAIDFIDEGRLLLEFDLLIFSFGQLPLALVTWVPMFLSTLLAPYQALRLWARGTWTQATGLGCALLAAHAVVLCALPVHVAVEHQLPPASRCVLVFEQVRFLMKSYSFLREAVPGTLRARRGEGIQAPSFSSYLYFLFCPTLIYRETYPRTPYVRWNYVAKNFAQALGCVLYACFILGRLCVPVFANMSREPFSTRALVLSILHATLPGIFMLLLIFFAFLHCWLNAFAEMLRFGDRMFYRDWWNSTSFSNYYRTWNVVVHDWLYSYVYQDGLRLLGARARGVAMLGVFLVSAVAHEYIFCFVLGFFYPVMLILFLVIGGMLNFMMHDQRTGPAWNVLMWTMLFLGQGIQVSLYCQEWYARRHCPLPQATFWGLVTPRSWSCHT

> <PDB ID(s) of Target Chain>


> <UniProt (SwissProt) Recommended Name of Target Chain>
Sterol O-acyltransferase 2

> <UniProt (SwissProt) Entry Name of Target Chain>
ACAT-2

> <UniProt (SwissProt) Primary ID of Target Chain>
O75908

> <UniProt (SwissProt) Secondary ID(s) of Target Chain>
F5H7W4 I6L9H9 Q4VB99 Q4VBA1 Q96TD4 Q9UNR2

> <UniProt (SwissProt) Alternative ID(s) of Target Chain>


> <UniProt (TrEMBL) Submitted Name of Target Chain>


> <UniProt (TrEMBL) Entry Name of Target Chain>


> <UniProt (TrEMBL) Primary ID of Target Chain>


> <UniProt (TrEMBL) Secondary ID(s) of Target Chain>


> <UniProt (TrEMBL) Alternative ID(s) of Target Chain>


$$$$
00038001.cdx
  Mrv0541 12012113462D          

 39 43  0  0  0  0            999 V2000
    0.9630  -10.1390    0.0000 C   0  0  0  0  0  0  0  0  0  0  0  0
    0.9630  -10.9640    0.0000 C   0  0  1  0  0  0  0  0  0  0  0  0
    1.6775  -11.3765    0.0000 C   0  0  0  0  0  0  0  0  0  0  0  0
    2.3920  -10.9640    0.0000 C   0  0  1  0  0  0  0  0  0  0  0  0
    2.3920  -10.1390    0.0000 C   0  0  2  0  0  0  0  0  0  0  0  0
    1.6775   -9.7265    0.0000 C   0  0  2  0  0  0  0  0  0  0  0  0
    1.6775   -8.9015    0.0000 C   0  0  0  0  0  0  0  0  0  0  0  0
    3.1065   -9.7265    0.0000 O   0  0  0  0  0  0  0  0  0  0  0  0
    0.2486  -11.3765    0.0000 C   0  0  3  0  0  0  0  0  0  0  0  0
   -0.4659  -10.9640    0.0000 C   0  0  0  0  0  0  0  0  0  0  0  0
    0.2486  -12.2015    0.0000 O   0  0  0  0  0  0  0  0  0  0  0  0
    3.1065  -11.3765    0.0000 O   0  0  0  0  0  0  0  0  0  0  0  0
    0.9630   -8.4890    0.0000 O   0  0  0  0  0  0  0  0  0  0  0  0
    2.3920   -8.4890    0.0000 C   0  0  0  0  0  0  0  0  0  0  0  0
    3.1065   -8.9015    0.0000 C   0  0  0  0  0  0  0  0  0  0  0  0
    3.8209   -8.4890    0.0000 C   0  0  0  0  0  0  0  0  0  0  0  0
    2.3920   -9.3140    0.0000 C   0  0  0  0  0  0  0  0  0  0  0  0
    3.8209   -7.6640    0.0000 C   0  0  0  0  0  0  0  0  0  0  0  0
    3.1065   -7.2515    0.0000 O   0  0  0  0  0  0  0  0  0  0  0  0
    2.3920   -7.6640    0.0000 C   0  0  0  0  0  0  0  0  0  0  0  0
    1.6775   -7.2515    0.0000 O   0  0  0  0  0  0  0  0  0  0  0  0
    4.5354   -7.2515    0.0000 C   0  0  0  0  0  0  0  0  0  0  0  0
    5.2499   -7.6640    0.0000 C   0  0  0  0  0  0  0  0  0  0  0  0
    5.9643   -7.2515    0.0000 N   0  0  0  0  0  0  0  0  0  0  0  0
    5.9643   -6.4265    0.0000 C   0  0  0  0  0  0  0  0  0  0  0  0
    4.5354   -6.4265    0.0000 C   0  0  0  0  0  0  0  0  0  0  0  0
   -1.1804  -11.3765    0.0000 O   0  0  0  0  0  0  0  0  0  0  0  0
    0.2486  -10.5515    0.0000 C   0  0  0  0  0  0  0  0  0  0  0  0
    5.2454   -6.0218    0.0000 C   0  0  0  0  0  0  0  0  0  0  0  0
   -1.8948  -10.9640    0.0000 C   0  0  0  0  0  0  0  0  0  0  0  0
   -2.6093  -11.3765    0.0000 C   0  0  0  0  0  0  0  0  0  0  0  0
   -1.8948  -10.1390    0.0000 O   0  0  0  0  0  0  0  0  0  0  0  0
   -3.3238  -10.9640    0.0000 C   0  0  0  0  0  0  0  0  0  0  0  0
   -4.0383  -11.3765    0.0000 C   0  0  0  0  0  0  0  0  0  0  0  0
   -4.0640  -12.2162    0.0000 C   0  0  0  0  0  0  0  0  0  0  0  0
   -3.3238  -12.6140    0.0000 C   0  0  0  0  0  0  0  0  0  0  0  0
   -2.6093  -12.2015    0.0000 C   0  0  0  0  0  0  0  0  0  0  0  0
   -4.7784  -12.6287    0.0000 C   0  0  0  0  0  0  0  0  0  0  0  0
   -5.4929  -13.0412    0.0000 N   0  0  0  0  0  0  0  0  0  0  0  0
  2  1  1  0  0  0  0
  2  3  1  0  0  0  0
  4  3  1  0  0  0  0
  5  4  1  0  0  0  0
  5  6  1  0  0  0  0
  6  1  1  1  0  0  0
  6  7  1  0  0  0  0
  5  8  1  0  0  0  0
  2  9  1  1  0  0  0
  9 10  1  4  0  0  0
  9 11  1  0  0  0  0
  4 12  1  1  0  0  0
  7 13  2  0  0  0  0
  7 14  1  0  0  0  0
 14 15  4  0  0  0  0
 15 16  4  0  0  0  0
  8 15  1  0  0  0  0
  5 17  1  1  0  0  0
 16 18  4  0  0  0  0
 18 19  4  0  0  0  0
 19 20  4  0  0  0  0
 20 14  4  0  0  0  0
 20 21  2  0  0  0  0
 18 22  1  0  0  0  0
 22 23  4  0  0  0  0
 23 24  4  0  0  0  0
 24 25  4  0  0  0  0
 26 22  4  0  0  0  0
 10 27  1  0  0  0  0
  9 28  1  0  0  0  0
 25 29  4  0  0  0  0
 29 26  4  0  0  0  0
 27 30  1  0  0  0  0
 30 31  1  0  0  0  0
 30 32  2  0  0  0  0
 31 33  4  0  0  0  0
 33 34  4  0  0  0  0
 34 35  4  0  0  0  0
 35 36  4  0  0  0  0
 36 37  4  0  0  0  0
 37 31  4  0  0  0  0
 35 38  1  0  0  0  0
 38 39  3  0  0  0  0
M  END
> <From>
www.bindingDB.org

> <BindingDB Reactant_set_id>
765845

> <Ligand InChI>
InChI=1S/C29H26N2O8/c1-28(36,15-37-26(34)17-7-5-16(13-30)6-8-17)19-10-20-25(33)24-22(39-29(20,2)23(32)11-19)12-21(38-27(24)35)18-4-3-9-31-14-18/h3-9,12,14,19-20,23,32,36H,10-11,15H2,1-2H3/t19-,20-,23-,28?,29-/m0/s1

> <Ligand InChI Key>
HXFVTRKRSBCWFS-UKGGDCOSSA-N

> <BindingDB MonomerID>
383179

> <BindingDB Ligand Name>
US10278962, Compound 14

> <Target Name>
Sterol O-acyltransferase 2

> <Target Source Organism According to Curator or DataSource>


> <Ki (nM)>


> <IC50 (nM)>
 129

> <Kd (nM)>


> <EC50 (nM)>


> <kon (M-1-s-1)>


> <koff (s-1)>


> <pH>


> <Temp (C)>


> <Curation/DataSource>
US Patent

> <Article DOI>


> <BindingDB Entry DOI>
10.7270/Q2CF9SF8

> <PMID>


> <PubChem AID>
aid1798542

> <Patent Number>
US10278962

> <Authors>
Nan, F; Li, B; Zhan, Y; Zhang, X; Xiong, Y; Hu, X; Zhang, Y

> <Institution>
Shanghai Institute of Materia Medica, Chinese Academy of Sciences

> <Link to Ligand in BindingDB>
http://www.bindingdb.org/bind/chemsearch/marvin/MolStructure.jsp?monomerid=383179

> <Link to Target in BindingDB>
http://www.bindingdb.org/jsp/dbsearch/PrimarySearch_ki.jsp?energyterm=kJ/mole&tag=pol&polymerid=7773&target=Sterol+O-acyltransferase+2&column=ki&startPg=0&Increment=50&submit=Search

> <Link to Ligand-Target Pair in BindingDB>
http://www.bindingdb.org/jsp/dbsearch/PrimarySearch_ki.jsp?energyterm=kJ/mole&tag=r21&monomerid=383179&enzyme=Sterol+O-acyltransferase+2&column=ki&startPg=0&Increment=50&submit=Search

> <Ligand HET ID in PDB>


> <PDB ID(s) for Ligand-Target Complex>


> <PubChem CID>
134309786

> <PubChem SID>
404852474

> <ChEBI ID of Ligand>


> <ChEMBL ID of Ligand>


> <DrugBank ID of Ligand>


> <IUPHAR_GRAC ID of Ligand>


> <KEGG ID of Ligand>


> <ZINC ID of Ligand>


> <Number of Protein Chains in Target (>1 implies a multichain complex)>
1

> <BindingDB Target Chain Sequence>
MEPGGARLRLQRTEGLGGERERQPCGDGNTETHRAPDLVQWTRHMEAVKAQLLEQAQGQLRELLDRAMREAIQSYPSQDKPLPPPPPGSLSRTQEPSLGKQKVFIIRKSLLDELMEVQHFRTIYHMFIAGLCVFIISTLAIDFIDEGRLLLEFDLLIFSFGQLPLALVTWVPMFLSTLLAPYQALRLWARGTWTQATGLGCALLAAHAVVLCALPVHVAVEHQLPPASRCVLVFEQVRFLMKSYSFLREAVPGTLRARRGEGIQAPSFSSYLYFLFCPTLIYRETYPRTPYVRWNYVAKNFAQALGCVLYACFILGRLCVPVFANMSREPFSTRALVLSILHATLPGIFMLLLIFFAFLHCWLNAFAEMLRFGDRMFYRDWWNSTSFSNYYRTWNVVVHDWLYSYVYQDGLRLLGARARGVAMLGVFLVSAVAHEYIFCFVLGFFYPVMLILFLVIGGMLNFMMHDQRTGPAWNVLMWTMLFLGQGIQVSLYCQEWYARRHCPLPQATFWGLVTPRSWSCHT

> <PDB ID(s) of Target Chain>


> <UniProt (SwissProt) Recommended Name of Target Chain>
Sterol O-acyltransferase 2

> <UniProt (SwissProt) Entry Name of Target Chain>
ACAT-2

> <UniProt (SwissProt) Primary ID of Target Chain>
O75908

> <UniProt (SwissProt) Secondary ID(s) of Target Chain>
F5H7W4 I6L9H9 Q4VB99 Q4VBA1 Q96TD4 Q9UNR2

> <UniProt (SwissProt) Alternative ID(s) of Target Chain>


> <UniProt (TrEMBL) Submitted Name of Target Chain>


> <UniProt (TrEMBL) Entry Name of Target Chain>


> <UniProt (TrEMBL) Primary ID of Target Chain>


> <UniProt (TrEMBL) Secondary ID(s) of Target Chain>


> <UniProt (TrEMBL) Alternative ID(s) of Target Chain>


$$$$

  Mrv0541 11241417312D          

 58 64  0  0  0  0            999 V2000
   27.4247  -16.5998    0.0000 C   0  0  0  0  0  0  0  0  0  0  0  0
   27.0164  -15.8873    0.0000 C   0  0  1  0  0  0  0  0  0  0  0  0
   26.6035  -16.5972    0.0000 C   0  0  0  0  0  0  0  0  0  0  0  0
   26.3080  -14.6540    0.0000 C   0  0  0  0  0  0  0  0  0  0  0  0
   26.3080  -15.4790    0.0000 C   0  0  2  0  0  0  0  0  0  0  0  0
   27.0201  -14.2373    0.0000 C   0  0  0  0  0  0  0  0  0  0  0  0
   27.7321  -14.6540    0.0000 C   0  0  1  0  0  0  0  0  0  0  0  0
   27.7331  -15.4790    0.0000 C   0  0  1  0  0  0  0  0  0  0  0  0
   28.4441  -15.8883    0.0000 C   0  0  0  0  0  0  0  0  0  0  0  0
   29.1587  -15.4772    0.0000 C   0  0  1  0  0  0  0  0  0  0  0  0
   28.4421  -14.2383    0.0000 C   0  0  2  0  0  0  0  0  0  0  0  0
   29.1596  -14.6528    0.0000 C   0  0  2  0  0  0  0  0  0  0  0  0
   29.8733  -14.2410    0.0000 O   0  0  0  0  0  0  0  0  0  0  0  0
   28.4383  -13.4120    0.0000 C   0  0  2  0  0  0  0  0  0  0  0  0
   29.1584  -12.9984    0.0000 C   0  0  0  0  0  0  0  0  0  0  0  0
   29.8809  -13.4121    0.0000 C   0  0  0  0  0  0  0  0  0  0  0  0
   30.5965  -12.9955    0.0000 C   0  0  0  0  0  0  0  0  0  0  0  0
   30.5957  -12.1634    0.0000 C   0  0  0  0  0  0  0  0  0  0  0  0
   29.8731  -11.7498    0.0000 O   0  0  0  0  0  0  0  0  0  0  0  0
   29.1513  -12.1681    0.0000 C   0  0  0  0  0  0  0  0  0  0  0  0
   31.3083  -11.7518    0.0000 C   0  0  0  0  0  0  0  0  0  0  0  0
   32.0241  -12.1644    0.0000 C   0  0  0  0  0  0  0  0  0  0  0  0
   32.7371  -11.7510    0.0000 N   0  0  0  0  0  0  0  0  0  0  0  0
   32.7356  -10.9251    0.0000 C   0  0  0  0  0  0  0  0  0  0  0  0
   32.0152  -10.5186    0.0000 C   0  0  0  0  0  0  0  0  0  0  0  0
   31.3051  -10.9302    0.0000 C   0  0  0  0  0  0  0  0  0  0  0  0
   29.8726  -15.8905    0.0000 O   0  0  0  0  0  0  0  0  0  0  0  0
   30.5876  -15.4790    0.0000 C   0  0  0  0  0  0  0  0  0  0  0  0
   31.3015  -15.8925    0.0000 C   0  0  0  0  0  0  0  0  0  0  0  0
   30.5887  -14.6540    0.0000 O   0  0  0  0  0  0  0  0  0  0  0  0
   28.4347  -11.7593    0.0000 O   0  0  0  0  0  0  0  0  0  0  0  0
   27.7234  -13.0003    0.0000 O   0  0  0  0  0  0  0  0  0  0  0  0
   27.7247  -13.8290    0.0000 C   0  0  0  0  0  0  0  0  0  0  0  0
   29.1538  -13.8248    0.0000 C   0  0  0  0  0  0  0  0  0  0  0  0
   25.5942  -15.8926    0.0000 O   0  0  0  0  0  0  0  0  0  0  0  0
   24.8791  -15.4811    0.0000 C   0  0  0  0  0  0  0  0  0  0  0  0
   24.1676  -15.8946    0.0000 C   0  0  0  0  0  0  0  0  0  0  0  0
   24.8779  -14.6561    0.0000 O   0  0  0  0  0  0  0  0  0  0  0  0
   31.2958  -16.7176    0.0000 C   0  0  0  0  0  0  0  0  0  0  0  0
   32.0089  -17.1309    0.0000 C   0  0  0  0  0  0  0  0  0  0  0  0
   32.7249  -16.7193    0.0000 C   0  0  0  0  0  0  0  0  0  0  0  0
   32.7233  -15.8900    0.0000 C   0  0  0  0  0  0  0  0  0  0  0  0
   32.0096  -15.4804    0.0000 C   0  0  0  0  0  0  0  0  0  0  0  0
   33.4387  -17.1278    0.0000 C   0  0  0  0  0  0  0  0  0  0  0  0
   34.1532  -17.5403    0.0000 N   0  0  0  0  0  0  0  0  0  0  0  0
   25.7785  -16.5946    0.0000 O   0  0  0  0  0  0  0  0  0  0  0  0
   27.0137  -17.3130    0.0000 N   0  0  0  0  0  0  0  0  0  0  0  0
   26.5990  -18.0261    0.0000 C   0  0  0  0  0  0  0  0  0  0  0  0
   25.7740  -18.0235    0.0000 C   0  0  0  0  0  0  0  0  0  0  0  0
   25.3663  -17.3082    0.0000 C   0  0  0  0  0  0  0  0  0  0  0  0
   24.5421  -17.3052    0.0000 C   0  0  0  0  0  0  0  0  0  0  0  0
   24.1265  -18.0190    0.0000 C   0  0  0  0  0  0  0  0  0  0  0  0
   24.5411  -18.7371    0.0000 C   0  0  0  0  0  0  0  0  0  0  0  0
   25.3640  -18.7365    0.0000 C   0  0  0  0  0  0  0  0  0  0  0  0
   25.7774  -19.4505    0.0000 O   0  0  0  0  0  0  0  0  0  0  0  0
   25.3658  -20.1655    0.0000 C   0  0  0  0  0  0  0  0  0  0  0  0
   23.3015  -18.0173    0.0000 O   0  0  0  0  0  0  0  0  0  0  0  0
   22.8904  -17.3022    0.0000 C   0  0  0  0  0  0  0  0  0  0  0  0
  2  1  1  1  0  0  0
  2  3  1  6  0  0  0
  5  4  1  0  0  0  0
  4  6  1  0  0  0  0
  2  5  1  0  0  0  0
  8  2  1  0  0  0  0
  7  6  1  0  0  0  0
  7  8  1  0  0  0  0
 11  7  1  1  0  0  0
  8  9  1  1  0  0  0
 10  9  1  0  0  0  0
 12 10  1  0  0  0  0
 11 12  1  0  0  0  0
 11 14  1  0  0  0  0
 12 13  1  0  0  0  0
 13 16  1  0  0  0  0
 14 15  1  0  0  0  0
 15 16  2  0  0  0  0
 15 20  1  0  0  0  0
 16 17  1  0  0  0  0
 17 18  2  0  0  0  0
 18 19  1  0  0  0  0
 19 20  1  0  0  0  0
 21 22  2  0  0  0  0
 22 23  1  0  0  0  0
 23 24  2  0  0  0  0
 24 25  1  0  0  0  0
 25 26  2  0  0  0  0
 26 21  1  0  0  0  0
 18 21  1  0  0  0  0
 10 27  1  1  0  0  0
 27 28  1  0  0  0  0
 28 29  1  0  0  0  0
 28 30  2  0  0  0  0
 20 31  2  0  0  0  0
 14 32  1  1  0  0  0
  7 33  1  1  0  0  0
 12 34  1  1  0  0  0
  5 35  1  1  0  0  0
 35 36  1  0  0  0  0
 36 37  1  0  0  0  0
 36 38  2  0  0  0  0
 29 39  2  0  0  0  0
 39 40  1  0  0  0  0
 40 41  2  0  0  0  0
 41 42  1  0  0  0  0
 42 43  2  0  0  0  0
 43 29  1  0  0  0  0
 44 45  3  0  0  0  0
 41 44  1  0  0  0  0
  3 46  2  0  0  0  0
  3 47  1  0  0  0  0
 47 48  1  0  0  0  0
 48 49  1  0  0  0  0
 49 50  2  0  0  0  0
 50 51  1  0  0  0  0
 51 52  2  0  0  0  0
 52 53  1  0  0  0  0
 53 54  2  0  0  0  0
 54 49  1  0  0  0  0
 54 55  1  0  0  0  0
 55 56  1  0  0  0  0
 52 57  1  0  0  0  0
 57 58  1  0  0  0  0
M  END
> <From>
www.bindingDB.org

> <BindingDB Reactant_set_id>
51061800

> <Ligand InChI>
InChI=1S/C44H45N3O11/c1-24(48)55-34-15-16-42(2)33(43(34,3)41(52)47-23-28-13-14-29(53-5)18-30(28)54-6)20-35(57-39(50)26-11-9-25(21-45)10-12-26)44(4)38(42)37(49)36-32(58-44)19-31(56-40(36)51)27-8-7-17-46-22-27/h7-14,17-19,22,33-35,37-38,49H,15-16,20,23H2,1-6H3,(H,47,52)/t33-,34+,35+,37+,38-,42+,43+,44-/m1/s1

> <Ligand InChI Key>
YBPLVXSCROVJTQ-HIAYPNGJSA-N

> <BindingDB MonomerID>
50433207

> <BindingDB Ligand Name>
CHEMBL2375602

> <Target Name>
Sterol O-acyltransferase 2

> <Target Source Organism According to Curator or DataSource>


> <Ki (nM)>


> <IC50 (nM)>
 140

> <Kd (nM)>


> <EC50 (nM)>


> <kon (M-1-s-1)>


> <koff (s-1)>


> <pH>


> <Temp (C)>


> <Curation/DataSource>
ChEMBL

> <Article DOI>
10.1016/j.bmcl.2013.02.088

> <BindingDB Entry DOI>
10.7270/Q20866P3

> <PMID>
23535327

> <PubChem AID>


> <Patent Number>


> <Authors>
Ohtawa, M; Yamazaki, H; Matsuda, D; Ohshiro, T; Rudel, LL; Omura, S; Tomoda, H; Nagamitsu, T

> <Institution>
Kitasato University

> <Link to Ligand in BindingDB>
http://www.bindingdb.org/bind/chemsearch/marvin/MolStructure.jsp?monomerid=50433207

> <Link to Target in BindingDB>
http://www.bindingdb.org/jsp/dbsearch/PrimarySearch_ki.jsp?energyterm=kJ/mole&tag=pol&polymerid=7773&target=Sterol+O-acyltransferase+2&column=ki&startPg=0&Increment=50&submit=Search

> <Link to Ligand-Target Pair in BindingDB>
http://www.bindingdb.org/jsp/dbsearch/PrimarySearch_ki.jsp?energyterm=kJ/mole&tag=r21&monomerid=50433207&enzyme=Sterol+O-acyltransferase+2&column=ki&startPg=0&Increment=50&submit=Search

> <Ligand HET ID in PDB>


> <PDB ID(s) for Ligand-Target Complex>


> <PubChem CID>
71602910

> <PubChem SID>
175445524

> <ChEBI ID of Ligand>


> <ChEMBL ID of Ligand>
CHEMBL2375602

> <DrugBank ID of Ligand>


> <IUPHAR_GRAC ID of Ligand>


> <KEGG ID of Ligand>


> <ZINC ID of Ligand>
ZINC96258625

> <Number of Protein Chains in Target (>1 implies a multichain complex)>
1

> <BindingDB Target Chain Sequence>
MEPGGARLRLQRTEGLGGERERQPCGDGNTETHRAPDLVQWTRHMEAVKAQLLEQAQGQLRELLDRAMREAIQSYPSQDKPLPPPPPGSLSRTQEPSLGKQKVFIIRKSLLDELMEVQHFRTIYHMFIAGLCVFIISTLAIDFIDEGRLLLEFDLLIFSFGQLPLALVTWVPMFLSTLLAPYQALRLWARGTWTQATGLGCALLAAHAVVLCALPVHVAVEHQLPPASRCVLVFEQVRFLMKSYSFLREAVPGTLRARRGEGIQAPSFSSYLYFLFCPTLIYRETYPRTPYVRWNYVAKNFAQALGCVLYACFILGRLCVPVFANMSREPFSTRALVLSILHATLPGIFMLLLIFFAFLHCWLNAFAEMLRFGDRMFYRDWWNSTSFSNYYRTWNVVVHDWLYSYVYQDGLRLLGARARGVAMLGVFLVSAVAHEYIFCFVLGFFYPVMLILFLVIGGMLNFMMHDQRTGPAWNVLMWTMLFLGQGIQVSLYCQEWYARRHCPLPQATFWGLVTPRSWSCHT

> <PDB ID(s) of Target Chain>


> <UniProt (SwissProt) Recommended Name of Target Chain>
Sterol O-acyltransferase 2

> <UniProt (SwissProt) Entry Name of Target Chain>
ACAT-2

> <UniProt (SwissProt) Primary ID of Target Chain>
O75908

> <UniProt (SwissProt) Secondary ID(s) of Target Chain>
F5H7W4 I6L9H9 Q4VB99 Q4VBA1 Q96TD4 Q9UNR2

> <UniProt (SwissProt) Alternative ID(s) of Target Chain>


> <UniProt (TrEMBL) Submitted Name of Target Chain>


> <UniProt (TrEMBL) Entry Name of Target Chain>


> <UniProt (TrEMBL) Primary ID of Target Chain>


> <UniProt (TrEMBL) Secondary ID(s) of Target Chain>


> <UniProt (TrEMBL) Alternative ID(s) of Target Chain>


$$$$
00036003.cdx
  Mrv0541 12012113462D          

 38 41  0  0  0  0            999 V2000
    2.3975   -3.3983    0.0000 C   0  0  0  0  0  0  0  0  0  0  0  0
    3.1119   -3.8108    0.0000 C   0  0  1  0  0  0  0  0  0  0  0  0
    3.1119   -4.6358    0.0000 C   0  0  0  0  0  0  0  0  0  0  0  0
    2.3975   -5.0483    0.0000 C   0  0  1  0  0  0  0  0  0  0  0  0
    1.6830   -4.6358    0.0000 C   0  0  2  0  0  0  0  0  0  0  0  0
    1.6830   -3.8108    0.0000 C   0  0  2  0  0  0  0  0  0  0  0  0
    0.9685   -3.3983    0.0000 C   0  0  2  0  0  0  0  0  0  0  0  0
    0.9685   -5.0483    0.0000 O   0  0  0  0  0  0  0  0  0  0  0  0
    3.8264   -3.3983    0.0000 C   0  0  3  0  0  0  0  0  0  0  0  0
    4.2389   -4.1128    0.0000 C   0  0  0  0  0  0  0  0  0  0  0  0
    0.9685   -2.5733    0.0000 O   0  0  0  0  0  0  0  0  0  0  0  0
    0.2541   -3.8108    0.0000 C   0  0  0  0  0  0  0  0  0  0  0  0
    0.2541   -4.6358    0.0000 C   0  0  0  0  0  0  0  0  0  0  0  0
   -0.4604   -5.0483    0.0000 C   0  0  0  0  0  0  0  0  0  0  0  0
    1.6830   -5.4608    0.0000 C   0  0  0  0  0  0  0  0  0  0  0  0
   -1.1749   -4.6358    0.0000 C   0  0  0  0  0  0  0  0  0  0  0  0
   -1.1749   -3.8108    0.0000 O   0  0  0  0  0  0  0  0  0  0  0  0
   -0.4604   -3.3983    0.0000 C   0  0  0  0  0  0  0  0  0  0  0  0
   -0.4604   -2.5733    0.0000 O   0  0  0  0  0  0  0  0  0  0  0  0
   -1.8894   -5.0483    0.0000 C   0  0  0  0  0  0  0  0  0  0  0  0
   -1.8894   -5.8733    0.0000 C   0  0  0  0  0  0  0  0  0  0  0  0
   -2.6038   -6.2858    0.0000 N   0  0  0  0  0  0  0  0  0  0  0  0
   -3.3183   -5.8733    0.0000 C   0  0  0  0  0  0  0  0  0  0  0  0
   -3.3183   -5.0483    0.0000 C   0  0  0  0  0  0  0  0  0  0  0  0
   -2.6038   -4.6358    0.0000 C   0  0  0  0  0  0  0  0  0  0  0  0
    3.4139   -2.6839    0.0000 C   0  0  0  0  0  0  0  0  0  0  0  0
    3.8264   -4.8273    0.0000 O   0  0  0  0  0  0  0  0  0  0  0  0
    2.3975   -5.8733    0.0000 O   0  0  0  0  0  0  0  0  0  0  0  0
    3.8264   -5.8733    0.0000 O   0  0  0  0  0  0  0  0  0  0  0  0
    3.1119   -6.2858    0.0000 C   0  0  0  0  0  0  0  0  0  0  0  0
    3.1119   -7.1108    0.0000 C   0  0  0  0  0  0  0  0  0  0  0  0
    4.5409   -2.9858    0.0000 O   0  0  0  0  0  0  0  0  0  0  0  0
    5.9698   -2.9858    0.0000 O   0  0  0  0  0  0  0  0  0  0  0  0
    5.2554   -3.3983    0.0000 C   0  0  0  0  0  0  0  0  0  0  0  0
    5.2554   -4.2233    0.0000 C   0  0  0  0  0  0  0  0  0  0  0  0
    4.2389   -5.5418    0.0000 C   0  0  0  0  0  0  0  0  0  0  0  0
    3.8264   -6.2562    0.0000 C   0  0  0  0  0  0  0  0  0  0  0  0
    5.0639   -5.5417    0.0000 O   0  0  0  0  0  0  0  0  0  0  0  0
  2  1  1  0  0  0  0
  2  3  1  0  0  0  0
  4  3  1  0  0  0  0
  5  4  1  0  0  0  0
  5  6  1  0  0  0  0
  6  1  1  6  0  0  0
  6  7  1  0  0  0  0
  5  8  1  0  0  0  0
  2  9  1  6  0  0  0
  9 10  1  4  0  0  0
  7 11  1  1  0  0  0
  7 12  1  0  0  0  0
 12 13  4  0  0  0  0
 13 14  4  0  0  0  0
  8 13  1  0  0  0  0
  5 15  1  6  0  0  0
 14 16  4  0  0  0  0
 16 17  4  0  0  0  0
 17 18  4  0  0  0  0
 18 12  4  0  0  0  0
 18 19  2  0  0  0  0
 16 20  1  0  0  0  0
 20 21  4  0  0  0  0
 21 22  4  0  0  0  0
 22 23  4  0  0  0  0
 23 24  4  0  0  0  0
 24 25  4  0  0  0  0
 25 20  4  0  0  0  0
  9 26  1  0  0  0  0
  4 28  1  6  0  0  0
  9 32  1  0  0  0  0
 32 34  1  0  0  0  0
 33 34  2  0  0  0  0
 34 35  1  0  0  0  0
 28 30  1  0  0  0  0
 29 30  2  0  0  0  0
 30 31  1  0  0  0  0
 10 27  1  0  0  0  0
 27 36  1  0  0  0  0
 36 37  1  0  0  0  0
 36 38  2  0  0  0  0
M  END
> <From>
www.bindingDB.org

> <BindingDB Reactant_set_id>
765839

> <Ligand InChI>
InChI=1S/C27H31NO10/c1-14(29)34-13-26(4,37-16(3)31)18-9-19-24(32)23-21(38-27(19,5)22(10-18)35-15(2)30)11-20(36-25(23)33)17-7-6-8-28-12-17/h6-8,11-12,18-19,22,24,32H,9-10,13H2,1-5H3/t18-,19-,22-,24-,26?,27-/m0/s1

> <Ligand InChI Key>
NIGGKHQHUNJNPM-HDRRGKJHSA-N

> <BindingDB MonomerID>
383176

> <BindingDB Ligand Name>
US10278962, Compound 15::US10278962, Compound 7

> <Target Name>
Sterol O-acyltransferase 2

> <Target Source Organism According to Curator or DataSource>


> <Ki (nM)>


> <IC50 (nM)>
 147

> <Kd (nM)>


> <EC50 (nM)>


> <kon (M-1-s-1)>


> <koff (s-1)>


> <pH>


> <Temp (C)>


> <Curation/DataSource>
US Patent

> <Article DOI>


> <BindingDB Entry DOI>
10.7270/Q2CF9SF8

> <PMID>


> <PubChem AID>
aid1798542

> <Patent Number>
US10278962

> <Authors>
Nan, F; Li, B; Zhan, Y; Zhang, X; Xiong, Y; Hu, X; Zhang, Y

> <Institution>
Shanghai Institute of Materia Medica, Chinese Academy of Sciences

> <Link to Ligand in BindingDB>
http://www.bindingdb.org/bind/chemsearch/marvin/MolStructure.jsp?monomerid=383176

> <Link to Target in BindingDB>
http://www.bindingdb.org/jsp/dbsearch/PrimarySearch_ki.jsp?energyterm=kJ/mole&tag=pol&polymerid=7773&target=Sterol+O-acyltransferase+2&column=ki&startPg=0&Increment=50&submit=Search

> <Link to Ligand-Target Pair in BindingDB>
http://www.bindingdb.org/jsp/dbsearch/PrimarySearch_ki.jsp?energyterm=kJ/mole&tag=r21&monomerid=383176&enzyme=Sterol+O-acyltransferase+2&column=ki&startPg=0&Increment=50&submit=Search

> <Ligand HET ID in PDB>


> <PDB ID(s) for Ligand-Target Complex>


> <PubChem CID>
134188224

> <PubChem SID>
404852471

> <ChEBI ID of Ligand>


> <ChEMBL ID of Ligand>


> <DrugBank ID of Ligand>


> <IUPHAR_GRAC ID of Ligand>


> <KEGG ID of Ligand>


> <ZINC ID of Ligand>


> <Number of Protein Chains in Target (>1 implies a multichain complex)>
1

> <BindingDB Target Chain Sequence>
MEPGGARLRLQRTEGLGGERERQPCGDGNTETHRAPDLVQWTRHMEAVKAQLLEQAQGQLRELLDRAMREAIQSYPSQDKPLPPPPPGSLSRTQEPSLGKQKVFIIRKSLLDELMEVQHFRTIYHMFIAGLCVFIISTLAIDFIDEGRLLLEFDLLIFSFGQLPLALVTWVPMFLSTLLAPYQALRLWARGTWTQATGLGCALLAAHAVVLCALPVHVAVEHQLPPASRCVLVFEQVRFLMKSYSFLREAVPGTLRARRGEGIQAPSFSSYLYFLFCPTLIYRETYPRTPYVRWNYVAKNFAQALGCVLYACFILGRLCVPVFANMSREPFSTRALVLSILHATLPGIFMLLLIFFAFLHCWLNAFAEMLRFGDRMFYRDWWNSTSFSNYYRTWNVVVHDWLYSYVYQDGLRLLGARARGVAMLGVFLVSAVAHEYIFCFVLGFFYPVMLILFLVIGGMLNFMMHDQRTGPAWNVLMWTMLFLGQGIQVSLYCQEWYARRHCPLPQATFWGLVTPRSWSCHT

> <PDB ID(s) of Target Chain>


> <UniProt (SwissProt) Recommended Name of Target Chain>
Sterol O-acyltransferase 2

> <UniProt (SwissProt) Entry Name of Target Chain>
ACAT-2

> <UniProt (SwissProt) Primary ID of Target Chain>
O75908

> <UniProt (SwissProt) Secondary ID(s) of Target Chain>
F5H7W4 I6L9H9 Q4VB99 Q4VBA1 Q96TD4 Q9UNR2

> <UniProt (SwissProt) Alternative ID(s) of Target Chain>


> <UniProt (TrEMBL) Submitted Name of Target Chain>


> <UniProt (TrEMBL) Entry Name of Target Chain>


> <UniProt (TrEMBL) Primary ID of Target Chain>


> <UniProt (TrEMBL) Secondary ID(s) of Target Chain>


> <UniProt (TrEMBL) Alternative ID(s) of Target Chain>


$$$$
00036003.cdx
  Mrv0541 12012113462D          

 38 41  0  0  0  0            999 V2000
    2.3975   -3.3983    0.0000 C   0  0  0  0  0  0  0  0  0  0  0  0
    3.1119   -3.8108    0.0000 C   0  0  1  0  0  0  0  0  0  0  0  0
    3.1119   -4.6358    0.0000 C   0  0  0  0  0  0  0  0  0  0  0  0
    2.3975   -5.0483    0.0000 C   0  0  1  0  0  0  0  0  0  0  0  0
    1.6830   -4.6358    0.0000 C   0  0  2  0  0  0  0  0  0  0  0  0
    1.6830   -3.8108    0.0000 C   0  0  2  0  0  0  0  0  0  0  0  0
    0.9685   -3.3983    0.0000 C   0  0  2  0  0  0  0  0  0  0  0  0
    0.9685   -5.0483    0.0000 O   0  0  0  0  0  0  0  0  0  0  0  0
    3.8264   -3.3983    0.0000 C   0  0  3  0  0  0  0  0  0  0  0  0
    4.2389   -4.1128    0.0000 C   0  0  0  0  0  0  0  0  0  0  0  0
    0.9685   -2.5733    0.0000 O   0  0  0  0  0  0  0  0  0  0  0  0
    0.2541   -3.8108    0.0000 C   0  0  0  0  0  0  0  0  0  0  0  0
    0.2541   -4.6358    0.0000 C   0  0  0  0  0  0  0  0  0  0  0  0
   -0.4604   -5.0483    0.0000 C   0  0  0  0  0  0  0  0  0  0  0  0
    1.6830   -5.4608    0.0000 C   0  0  0  0  0  0  0  0  0  0  0  0
   -1.1749   -4.6358    0.0000 C   0  0  0  0  0  0  0  0  0  0  0  0
   -1.1749   -3.8108    0.0000 O   0  0  0  0  0  0  0  0  0  0  0  0
   -0.4604   -3.3983    0.0000 C   0  0  0  0  0  0  0  0  0  0  0  0
   -0.4604   -2.5733    0.0000 O   0  0  0  0  0  0  0  0  0  0  0  0
   -1.8894   -5.0483    0.0000 C   0  0  0  0  0  0  0  0  0  0  0  0
   -1.8894   -5.8733    0.0000 C   0  0  0  0  0  0  0  0  0  0  0  0
   -2.6038   -6.2858    0.0000 N   0  0  0  0  0  0  0  0  0  0  0  0
   -3.3183   -5.8733    0.0000 C   0  0  0  0  0  0  0  0  0  0  0  0
   -3.3183   -5.0483    0.0000 C   0  0  0  0  0  0  0  0  0  0  0  0
   -2.6038   -4.6358    0.0000 C   0  0  0  0  0  0  0  0  0  0  0  0
    3.4139   -2.6839    0.0000 C   0  0  0  0  0  0  0  0  0  0  0  0
    3.8264   -4.8273    0.0000 O   0  0  0  0  0  0  0  0  0  0  0  0
    2.3975   -5.8733    0.0000 O   0  0  0  0  0  0  0  0  0  0  0  0
    3.8264   -5.8733    0.0000 O   0  0  0  0  0  0  0  0  0  0  0  0
    3.1119   -6.2858    0.0000 C   0  0  0  0  0  0  0  0  0  0  0  0
    3.1119   -7.1108    0.0000 C   0  0  0  0  0  0  0  0  0  0  0  0
    4.5409   -2.9858    0.0000 O   0  0  0  0  0  0  0  0  0  0  0  0
    5.9698   -2.9858    0.0000 O   0  0  0  0  0  0  0  0  0  0  0  0
    5.2554   -3.3983    0.0000 C   0  0  0  0  0  0  0  0  0  0  0  0
    5.2554   -4.2233    0.0000 C   0  0  0  0  0  0  0  0  0  0  0  0
    4.2389   -5.5418    0.0000 C   0  0  0  0  0  0  0  0  0  0  0  0
    3.8264   -6.2562    0.0000 C   0  0  0  0  0  0  0  0  0  0  0  0
    5.0639   -5.5417    0.0000 O   0  0  0  0  0  0  0  0  0  0  0  0
  2  1  1  0  0  0  0
  2  3  1  0  0  0  0
  4  3  1  0  0  0  0
  5  4  1  0  0  0  0
  5  6  1  0  0  0  0
  6  1  1  6  0  0  0
  6  7  1  0  0  0  0
  5  8  1  0  0  0  0
  2  9  1  6  0  0  0
  9 10  1  4  0  0  0
  7 11  1  1  0  0  0
  7 12  1  0  0  0  0
 12 13  4  0  0  0  0
 13 14  4  0  0  0  0
  8 13  1  0  0  0  0
  5 15  1  6  0  0  0
 14 16  4  0  0  0  0
 16 17  4  0  0  0  0
 17 18  4  0  0  0  0
 18 12  4  0  0  0  0
 18 19  2  0  0  0  0
 16 20  1  0  0  0  0
 20 21  4  0  0  0  0
 21 22  4  0  0  0  0
 22 23  4  0  0  0  0
 23 24  4  0  0  0  0
 24 25  4  0  0  0  0
 25 20  4  0  0  0  0
  9 26  1  0  0  0  0
  4 28  1  6  0  0  0
  9 32  1  0  0  0  0
 32 34  1  0  0  0  0
 33 34  2  0  0  0  0
 34 35  1  0  0  0  0
 28 30  1  0  0  0  0
 29 30  2  0  0  0  0
 30 31  1  0  0  0  0
 10 27  1  0  0  0  0
 27 36  1  0  0  0  0
 36 37  1  0  0  0  0
 36 38  2  0  0  0  0
M  END
> <From>
www.bindingDB.org

> <BindingDB Reactant_set_id>
765827

> <Ligand InChI>
InChI=1S/C27H31NO10/c1-14(29)34-13-26(4,37-16(3)31)18-9-19-24(32)23-21(38-27(19,5)22(10-18)35-15(2)30)11-20(36-25(23)33)17-7-6-8-28-12-17/h6-8,11-12,18-19,22,24,32H,9-10,13H2,1-5H3/t18-,19-,22-,24-,26?,27-/m0/s1

> <Ligand InChI Key>
NIGGKHQHUNJNPM-HDRRGKJHSA-N

> <BindingDB MonomerID>
383176

> <BindingDB Ligand Name>
US10278962, Compound 15::US10278962, Compound 7

> <Target Name>
Sterol O-acyltransferase 2

> <Target Source Organism According to Curator or DataSource>


> <Ki (nM)>


> <IC50 (nM)>
 152

> <Kd (nM)>


> <EC50 (nM)>


> <kon (M-1-s-1)>


> <koff (s-1)>


> <pH>


> <Temp (C)>


> <Curation/DataSource>
US Patent

> <Article DOI>


> <BindingDB Entry DOI>
10.7270/Q2CF9SF8

> <PMID>


> <PubChem AID>
aid1798542

> <Patent Number>
US10278962

> <Authors>
Nan, F; Li, B; Zhan, Y; Zhang, X; Xiong, Y; Hu, X; Zhang, Y

> <Institution>
Shanghai Institute of Materia Medica, Chinese Academy of Sciences

> <Link to Ligand in BindingDB>
http://www.bindingdb.org/bind/chemsearch/marvin/MolStructure.jsp?monomerid=383176

> <Link to Target in BindingDB>
http://www.bindingdb.org/jsp/dbsearch/PrimarySearch_ki.jsp?energyterm=kJ/mole&tag=pol&polymerid=7773&target=Sterol+O-acyltransferase+2&column=ki&startPg=0&Increment=50&submit=Search

> <Link to Ligand-Target Pair in BindingDB>
http://www.bindingdb.org/jsp/dbsearch/PrimarySearch_ki.jsp?energyterm=kJ/mole&tag=r21&monomerid=383176&enzyme=Sterol+O-acyltransferase+2&column=ki&startPg=0&Increment=50&submit=Search

> <Ligand HET ID in PDB>


> <PDB ID(s) for Ligand-Target Complex>


> <PubChem CID>
134188224

> <PubChem SID>
404852471

> <ChEBI ID of Ligand>


> <ChEMBL ID of Ligand>


> <DrugBank ID of Ligand>


> <IUPHAR_GRAC ID of Ligand>


> <KEGG ID of Ligand>


> <ZINC ID of Ligand>


> <Number of Protein Chains in Target (>1 implies a multichain complex)>
1

> <BindingDB Target Chain Sequence>
MEPGGARLRLQRTEGLGGERERQPCGDGNTETHRAPDLVQWTRHMEAVKAQLLEQAQGQLRELLDRAMREAIQSYPSQDKPLPPPPPGSLSRTQEPSLGKQKVFIIRKSLLDELMEVQHFRTIYHMFIAGLCVFIISTLAIDFIDEGRLLLEFDLLIFSFGQLPLALVTWVPMFLSTLLAPYQALRLWARGTWTQATGLGCALLAAHAVVLCALPVHVAVEHQLPPASRCVLVFEQVRFLMKSYSFLREAVPGTLRARRGEGIQAPSFSSYLYFLFCPTLIYRETYPRTPYVRWNYVAKNFAQALGCVLYACFILGRLCVPVFANMSREPFSTRALVLSILHATLPGIFMLLLIFFAFLHCWLNAFAEMLRFGDRMFYRDWWNSTSFSNYYRTWNVVVHDWLYSYVYQDGLRLLGARARGVAMLGVFLVSAVAHEYIFCFVLGFFYPVMLILFLVIGGMLNFMMHDQRTGPAWNVLMWTMLFLGQGIQVSLYCQEWYARRHCPLPQATFWGLVTPRSWSCHT

> <PDB ID(s) of Target Chain>


> <UniProt (SwissProt) Recommended Name of Target Chain>
Sterol O-acyltransferase 2

> <UniProt (SwissProt) Entry Name of Target Chain>
ACAT-2

> <UniProt (SwissProt) Primary ID of Target Chain>
O75908

> <UniProt (SwissProt) Secondary ID(s) of Target Chain>
F5H7W4 I6L9H9 Q4VB99 Q4VBA1 Q96TD4 Q9UNR2

> <UniProt (SwissProt) Alternative ID(s) of Target Chain>


> <UniProt (TrEMBL) Submitted Name of Target Chain>


> <UniProt (TrEMBL) Entry Name of Target Chain>


> <UniProt (TrEMBL) Primary ID of Target Chain>


> <UniProt (TrEMBL) Secondary ID(s) of Target Chain>


> <UniProt (TrEMBL) Alternative ID(s) of Target Chain>


$$$$
 
  Mrv0541 11211416102D          

 26 26  0  0  0  0            999 V2000
    3.8444   -7.2458    0.0000 C   0  0  0  0  0  0  0  0  0  0  0  0
    3.8432   -8.0732    0.0000 C   0  0  0  0  0  0  0  0  0  0  0  0
    4.5581   -8.4860    0.0000 C   0  0  0  0  0  0  0  0  0  0  0  0
    5.2745   -8.0727    0.0000 C   0  0  0  0  0  0  0  0  0  0  0  0
    5.2716   -7.2422    0.0000 C   0  0  0  0  0  0  0  0  0  0  0  0
    4.5563   -6.8330    0.0000 C   0  0  0  0  0  0  0  0  0  0  0  0
    5.9896   -8.4841    0.0000 N   0  0  0  0  0  0  0  0  0  0  0  0
    6.7034   -8.0704    0.0000 C   0  0  0  0  0  0  0  0  0  0  0  0
    7.4186   -8.4818    0.0000 C   0  0  0  0  0  0  0  0  0  0  0  0
    6.7021   -7.2454    0.0000 O   0  0  0  0  0  0  0  0  0  0  0  0
    8.1324   -8.0682    0.0000 C   0  0  0  0  0  0  0  0  0  0  0  0
    8.8475   -8.4796    0.0000 C   0  0  0  0  0  0  0  0  0  0  0  0
    9.5613   -8.0660    0.0000 C   0  0  0  0  0  0  0  0  0  0  0  0
   10.2764   -8.4773    0.0000 C   0  0  0  0  0  0  0  0  0  0  0  0
   10.9903   -8.0637    0.0000 C   0  0  0  0  0  0  0  0  0  0  0  0
   11.7054   -8.4751    0.0000 C   0  0  0  0  0  0  0  0  0  0  0  0
   12.4192   -8.0615    0.0000 C   0  0  0  0  0  0  0  0  0  0  0  0
   13.1343   -8.4729    0.0000 C   0  0  0  0  0  0  0  0  0  0  0  0
   13.1356   -9.2979    0.0000 C   0  0  0  0  0  0  0  0  0  0  0  0
   12.4218   -9.7115    0.0000 C   0  0  0  0  0  0  0  0  0  0  0  0
   11.7067   -9.3001    0.0000 C   0  0  0  0  0  0  0  0  0  0  0  0
   10.9928   -9.7137    0.0000 C   0  0  0  0  0  0  0  0  0  0  0  0
   10.2777   -9.3023    0.0000 C   0  0  0  0  0  0  0  0  0  0  0  0
    9.5639   -9.7160    0.0000 C   0  0  0  0  0  0  0  0  0  0  0  0
    8.8488   -9.3046    0.0000 C   0  0  0  0  0  0  0  0  0  0  0  0
    8.1350   -9.7182    0.0000 C   0  0  0  0  0  0  0  0  0  0  0  0
 12 13  1  0  0  0  0
  1  2  2  0  0  0  0
 13 14  1  0  0  0  0
  4  7  1  0  0  0  0
 14 15  1  0  0  0  0
  3  4  2  0  0  0  0
 15 16  1  0  0  0  0
  7  8  1  0  0  0  0
 16 17  1  0  0  0  0
 17 18  2  0  0  0  0
  8  9  1  0  0  0  0
 18 19  1  0  0  0  0
  4  5  1  0  0  0  0
 19 20  1  0  0  0  0
  8 10  2  0  0  0  0
 20 21  1  0  0  0  0
  2  3  1  0  0  0  0
 21 22  1  0  0  0  0
  9 11  1  0  0  0  0
 22 23  1  0  0  0  0
  5  6  2  0  0  0  0
 23 24  1  0  0  0  0
 11 12  1  0  0  0  0
 24 25  1  0  0  0  0
  6  1  1  0  0  0  0
 25 26  1  0  0  0  0
M  END
> <From>
www.bindingDB.org

> <BindingDB Reactant_set_id>
50357582

> <Ligand InChI>
InChI=1S/C24H39NO/c1-2-3-4-5-6-7-8-9-10-11-12-13-14-15-19-22-24(26)25-23-20-17-16-18-21-23/h9-10,16-18,20-21H,2-8,11-15,19,22H2,1H3,(H,25,26)/b10-9-

> <Ligand InChI Key>
YPUOCYKJOLQYQS-KTKRTIGZSA-N

> <BindingDB MonomerID>
50147178

> <BindingDB Ligand Name>
(Z)-Octadec-9-enoic acid phenylamide::CHEMBL15611::oleic acid anilide

> <Target Name>
Sterol O-acyltransferase 2

> <Target Source Organism According to Curator or DataSource>


> <Ki (nM)>


> <IC50 (nM)>
 170

> <Kd (nM)>


> <EC50 (nM)>


> <kon (M-1-s-1)>


> <koff (s-1)>


> <pH>


> <Temp (C)>


> <Curation/DataSource>
ChEMBL

> <Article DOI>
10.1016/j.bmcl.2006.08.032

> <BindingDB Entry DOI>
10.7270/Q2PV6K0R

> <PMID>
16919944

> <PubChem AID>


> <Patent Number>


> <Authors>
Park, KH; Park, YD; Han, JM; Im, KR; Lee, BW; Jeong, IY; Jeong, TS; Lee, WS

> <Institution>
National Research Laboratory of Lipid Metabolism and Atherosclerosis

> <Link to Ligand in BindingDB>
http://www.bindingdb.org/bind/chemsearch/marvin/MolStructure.jsp?monomerid=50147178

> <Link to Target in BindingDB>
http://www.bindingdb.org/jsp/dbsearch/PrimarySearch_ki.jsp?energyterm=kJ/mole&tag=pol&polymerid=7773&target=Sterol+O-acyltransferase+2&column=ki&startPg=0&Increment=50&submit=Search

> <Link to Ligand-Target Pair in BindingDB>
http://www.bindingdb.org/jsp/dbsearch/PrimarySearch_ki.jsp?energyterm=kJ/mole&tag=r21&monomerid=50147178&enzyme=Sterol+O-acyltransferase+2&column=ki&startPg=0&Increment=50&submit=Search

> <Ligand HET ID in PDB>


> <PDB ID(s) for Ligand-Target Complex>


> <PubChem CID>
5354590

> <PubChem SID>
104035699

> <ChEBI ID of Ligand>
53721

> <ChEMBL ID of Ligand>
CHEMBL15611

> <DrugBank ID of Ligand>


> <IUPHAR_GRAC ID of Ligand>


> <KEGG ID of Ligand>


> <ZINC ID of Ligand>
ZINC36349347

> <Number of Protein Chains in Target (>1 implies a multichain complex)>
1

> <BindingDB Target Chain Sequence>
MEPGGARLRLQRTEGLGGERERQPCGDGNTETHRAPDLVQWTRHMEAVKAQLLEQAQGQLRELLDRAMREAIQSYPSQDKPLPPPPPGSLSRTQEPSLGKQKVFIIRKSLLDELMEVQHFRTIYHMFIAGLCVFIISTLAIDFIDEGRLLLEFDLLIFSFGQLPLALVTWVPMFLSTLLAPYQALRLWARGTWTQATGLGCALLAAHAVVLCALPVHVAVEHQLPPASRCVLVFEQVRFLMKSYSFLREAVPGTLRARRGEGIQAPSFSSYLYFLFCPTLIYRETYPRTPYVRWNYVAKNFAQALGCVLYACFILGRLCVPVFANMSREPFSTRALVLSILHATLPGIFMLLLIFFAFLHCWLNAFAEMLRFGDRMFYRDWWNSTSFSNYYRTWNVVVHDWLYSYVYQDGLRLLGARARGVAMLGVFLVSAVAHEYIFCFVLGFFYPVMLILFLVIGGMLNFMMHDQRTGPAWNVLMWTMLFLGQGIQVSLYCQEWYARRHCPLPQATFWGLVTPRSWSCHT

> <PDB ID(s) of Target Chain>


> <UniProt (SwissProt) Recommended Name of Target Chain>
Sterol O-acyltransferase 2

> <UniProt (SwissProt) Entry Name of Target Chain>
ACAT-2

> <UniProt (SwissProt) Primary ID of Target Chain>
O75908

> <UniProt (SwissProt) Secondary ID(s) of Target Chain>
F5H7W4 I6L9H9 Q4VB99 Q4VBA1 Q96TD4 Q9UNR2

> <UniProt (SwissProt) Alternative ID(s) of Target Chain>


> <UniProt (TrEMBL) Submitted Name of Target Chain>


> <UniProt (TrEMBL) Entry Name of Target Chain>


> <UniProt (TrEMBL) Primary ID of Target Chain>


> <UniProt (TrEMBL) Secondary ID(s) of Target Chain>


> <UniProt (TrEMBL) Alternative ID(s) of Target Chain>


$$$$
 
  Mrv0541 11211416102D          

 26 26  0  0  0  0            999 V2000
    3.8444   -7.2458    0.0000 C   0  0  0  0  0  0  0  0  0  0  0  0
    3.8432   -8.0732    0.0000 C   0  0  0  0  0  0  0  0  0  0  0  0
    4.5581   -8.4860    0.0000 C   0  0  0  0  0  0  0  0  0  0  0  0
    5.2745   -8.0727    0.0000 C   0  0  0  0  0  0  0  0  0  0  0  0
    5.2716   -7.2422    0.0000 C   0  0  0  0  0  0  0  0  0  0  0  0
    4.5563   -6.8330    0.0000 C   0  0  0  0  0  0  0  0  0  0  0  0
    5.9896   -8.4841    0.0000 N   0  0  0  0  0  0  0  0  0  0  0  0
    6.7034   -8.0704    0.0000 C   0  0  0  0  0  0  0  0  0  0  0  0
    7.4186   -8.4818    0.0000 C   0  0  0  0  0  0  0  0  0  0  0  0
    6.7021   -7.2454    0.0000 O   0  0  0  0  0  0  0  0  0  0  0  0
    8.1324   -8.0682    0.0000 C   0  0  0  0  0  0  0  0  0  0  0  0
    8.8475   -8.4796    0.0000 C   0  0  0  0  0  0  0  0  0  0  0  0
    9.5613   -8.0660    0.0000 C   0  0  0  0  0  0  0  0  0  0  0  0
   10.2764   -8.4773    0.0000 C   0  0  0  0  0  0  0  0  0  0  0  0
   10.9903   -8.0637    0.0000 C   0  0  0  0  0  0  0  0  0  0  0  0
   11.7054   -8.4751    0.0000 C   0  0  0  0  0  0  0  0  0  0  0  0
   12.4192   -8.0615    0.0000 C   0  0  0  0  0  0  0  0  0  0  0  0
   13.1343   -8.4729    0.0000 C   0  0  0  0  0  0  0  0  0  0  0  0
   13.1356   -9.2979    0.0000 C   0  0  0  0  0  0  0  0  0  0  0  0
   12.4218   -9.7115    0.0000 C   0  0  0  0  0  0  0  0  0  0  0  0
   11.7067   -9.3001    0.0000 C   0  0  0  0  0  0  0  0  0  0  0  0
   10.9928   -9.7137    0.0000 C   0  0  0  0  0  0  0  0  0  0  0  0
   10.2777   -9.3023    0.0000 C   0  0  0  0  0  0  0  0  0  0  0  0
    9.5639   -9.7160    0.0000 C   0  0  0  0  0  0  0  0  0  0  0  0
    8.8488   -9.3046    0.0000 C   0  0  0  0  0  0  0  0  0  0  0  0
    8.1350   -9.7182    0.0000 C   0  0  0  0  0  0  0  0  0  0  0  0
 12 13  1  0  0  0  0
  1  2  2  0  0  0  0
 13 14  1  0  0  0  0
  4  7  1  0  0  0  0
 14 15  1  0  0  0  0
  3  4  2  0  0  0  0
 15 16  1  0  0  0  0
  7  8  1  0  0  0  0
 16 17  1  0  0  0  0
 17 18  2  0  0  0  0
  8  9  1  0  0  0  0
 18 19  1  0  0  0  0
  4  5  1  0  0  0  0
 19 20  1  0  0  0  0
  8 10  2  0  0  0  0
 20 21  1  0  0  0  0
  2  3  1  0  0  0  0
 21 22  1  0  0  0  0
  9 11  1  0  0  0  0
 22 23  1  0  0  0  0
  5  6  2  0  0  0  0
 23 24  1  0  0  0  0
 11 12  1  0  0  0  0
 24 25  1  0  0  0  0
  6  1  1  0  0  0  0
 25 26  1  0  0  0  0
M  END
> <From>
www.bindingDB.org

> <BindingDB Reactant_set_id>
50270329

> <Ligand InChI>
InChI=1S/C24H39NO/c1-2-3-4-5-6-7-8-9-10-11-12-13-14-15-19-22-24(26)25-23-20-17-16-18-21-23/h9-10,16-18,20-21H,2-8,11-15,19,22H2,1H3,(H,25,26)/b10-9-

> <Ligand InChI Key>
YPUOCYKJOLQYQS-KTKRTIGZSA-N

> <BindingDB MonomerID>
50147178

> <BindingDB Ligand Name>
(Z)-Octadec-9-enoic acid phenylamide::CHEMBL15611::oleic acid anilide

> <Target Name>
Sterol O-acyltransferase 2

> <Target Source Organism According to Curator or DataSource>


> <Ki (nM)>


> <IC50 (nM)>
 170

> <Kd (nM)>


> <EC50 (nM)>


> <kon (M-1-s-1)>


> <koff (s-1)>


> <pH>


> <Temp (C)>


> <Curation/DataSource>
ChEMBL

> <Article DOI>
10.1016/j.bmcl.2004.04.023

> <BindingDB Entry DOI>
10.7270/Q2X929Q0

> <PMID>
15149654

> <PubChem AID>


> <Patent Number>


> <Authors>
Lee, WS; Lee, DW; Baek, YI; An, S; An, SJ; Cho, KH; Choi, YK; Kim, HC; Park, HY; Bae, KH; Jeong, TS

> <Institution>
Korea Research Institute of Bioscience and Biotechnology

> <Link to Ligand in BindingDB>
http://www.bindingdb.org/bind/chemsearch/marvin/MolStructure.jsp?monomerid=50147178

> <Link to Target in BindingDB>
http://www.bindingdb.org/jsp/dbsearch/PrimarySearch_ki.jsp?energyterm=kJ/mole&tag=pol&polymerid=7773&target=Sterol+O-acyltransferase+2&column=ki&startPg=0&Increment=50&submit=Search

> <Link to Ligand-Target Pair in BindingDB>
http://www.bindingdb.org/jsp/dbsearch/PrimarySearch_ki.jsp?energyterm=kJ/mole&tag=r21&monomerid=50147178&enzyme=Sterol+O-acyltransferase+2&column=ki&startPg=0&Increment=50&submit=Search

> <Ligand HET ID in PDB>


> <PDB ID(s) for Ligand-Target Complex>


> <PubChem CID>
5354590

> <PubChem SID>
104035699

> <ChEBI ID of Ligand>
53721

> <ChEMBL ID of Ligand>
CHEMBL15611

> <DrugBank ID of Ligand>


> <IUPHAR_GRAC ID of Ligand>


> <KEGG ID of Ligand>


> <ZINC ID of Ligand>
ZINC36349347

> <Number of Protein Chains in Target (>1 implies a multichain complex)>
1

> <BindingDB Target Chain Sequence>
MEPGGARLRLQRTEGLGGERERQPCGDGNTETHRAPDLVQWTRHMEAVKAQLLEQAQGQLRELLDRAMREAIQSYPSQDKPLPPPPPGSLSRTQEPSLGKQKVFIIRKSLLDELMEVQHFRTIYHMFIAGLCVFIISTLAIDFIDEGRLLLEFDLLIFSFGQLPLALVTWVPMFLSTLLAPYQALRLWARGTWTQATGLGCALLAAHAVVLCALPVHVAVEHQLPPASRCVLVFEQVRFLMKSYSFLREAVPGTLRARRGEGIQAPSFSSYLYFLFCPTLIYRETYPRTPYVRWNYVAKNFAQALGCVLYACFILGRLCVPVFANMSREPFSTRALVLSILHATLPGIFMLLLIFFAFLHCWLNAFAEMLRFGDRMFYRDWWNSTSFSNYYRTWNVVVHDWLYSYVYQDGLRLLGARARGVAMLGVFLVSAVAHEYIFCFVLGFFYPVMLILFLVIGGMLNFMMHDQRTGPAWNVLMWTMLFLGQGIQVSLYCQEWYARRHCPLPQATFWGLVTPRSWSCHT

> <PDB ID(s) of Target Chain>


> <UniProt (SwissProt) Recommended Name of Target Chain>
Sterol O-acyltransferase 2

> <UniProt (SwissProt) Entry Name of Target Chain>
ACAT-2

> <UniProt (SwissProt) Primary ID of Target Chain>
O75908

> <UniProt (SwissProt) Secondary ID(s) of Target Chain>
F5H7W4 I6L9H9 Q4VB99 Q4VBA1 Q96TD4 Q9UNR2

> <UniProt (SwissProt) Alternative ID(s) of Target Chain>


> <UniProt (TrEMBL) Submitted Name of Target Chain>


> <UniProt (TrEMBL) Entry Name of Target Chain>


> <UniProt (TrEMBL) Primary ID of Target Chain>


> <UniProt (TrEMBL) Secondary ID(s) of Target Chain>


> <UniProt (TrEMBL) Alternative ID(s) of Target Chain>


$$$$

  Mrv0541 12012113462D          

 42 46  0  0  0  0            999 V2000
    7.1976   -1.4151    0.0000 C   0  0  0  0  0  0  0  0  0  0  0  0
    6.4768   -1.0138    0.0000 C   0  0  0  0  0  0  0  0  0  0  0  0
    6.4640   -0.1889    0.0000 O   0  0  0  0  0  0  0  0  0  0  0  0
    5.7689   -1.4374    0.0000 O   0  0  0  0  0  0  0  0  0  0  0  0
    5.0480   -1.0360    0.0000 C   0  0  0  0  0  0  0  0  0  0  0  0
    5.0352   -0.2111    0.0000 C   0  0  0  0  0  0  0  0  0  0  0  0
    5.3052    0.5684    0.0000 C   0  0  0  0  0  0  0  0  0  0  0  0
    4.7651    1.1921    0.0000 C   0  0  0  0  0  0  0  0  0  0  0  0
    3.9550    1.0361    0.0000 C   0  0  0  0  0  0  0  0  0  0  0  0
    3.6850    0.2566    0.0000 C   0  0  0  0  0  0  0  0  0  0  0  0
    4.2251   -0.3671    0.0000 C   0  0  0  0  0  0  0  0  0  0  0  0
    3.9550   -1.1466    0.0000 C   0  0  0  0  0  0  0  0  0  0  0  0
    3.1449   -1.3025    0.0000 C   0  0  0  0  0  0  0  0  0  0  0  0
    2.6048   -0.6789    0.0000 C   0  0  0  0  0  0  0  0  0  0  0  0
    2.8748    0.1007    0.0000 C   0  0  0  0  0  0  0  0  0  0  0  0
    2.3347    0.7243    0.0000 C   0  0  0  0  0  0  0  0  0  0  0  0
    1.5246    0.5684    0.0000 C   0  0  0  0  0  0  0  0  0  0  0  0
    1.2546   -0.2111    0.0000 C   0  0  0  0  0  0  0  0  0  0  0  0
    1.7946   -0.8348    0.0000 O   0  0  0  0  0  0  0  0  0  0  0  0
    0.4444   -0.3671    0.0000 C   0  0  0  0  0  0  0  0  0  0  0  0
   -0.0957    0.2566    0.0000 C   0  0  0  0  0  0  0  0  0  0  0  0
    0.1744    1.0361    0.0000 O   0  0  0  0  0  0  0  0  0  0  0  0
    0.9845    1.1921    0.0000 C   0  0  0  0  0  0  0  0  0  0  0  0
    1.2546    1.9716    0.0000 O   0  0  0  0  0  0  0  0  0  0  0  0
   -0.9058    0.1007    0.0000 C   0  0  0  0  0  0  0  0  0  0  0  0
   -1.1758   -0.6789    0.0000 C   0  0  0  0  0  0  0  0  0  0  0  0
   -1.9860   -0.8348    0.0000 N   0  0  0  0  0  0  0  0  0  0  0  0
   -2.5261   -0.2111    0.0000 C   0  0  0  0  0  0  0  0  0  0  0  0
   -2.2560    0.5684    0.0000 C   0  0  0  0  0  0  0  0  0  0  0  0
   -1.4459    0.7243    0.0000 C   0  0  0  0  0  0  0  0  0  0  0  0
    2.6048    1.5039    0.0000 O   0  0  0  0  0  0  0  0  0  0  0  0
    2.3347   -1.4584    0.0000 C   0  0  0  0  0  0  0  0  0  0  0  0
    2.8748   -2.0821    0.0000 O   0  0  0  0  0  0  0  0  0  0  0  0
    3.4149   -2.7057    0.0000 C   0  0  0  0  0  0  0  0  0  0  0  0
    4.2251   -2.5498    0.0000 O   0  0  0  0  0  0  0  0  0  0  0  0
    3.1449   -3.4853    0.0000 C   0  0  0  0  0  0  0  0  0  0  0  0
    3.1449    0.8802    0.0000 C   0  0  0  0  0  0  0  0  0  0  0  0
    6.1154    0.7243    0.0000 O   0  0  0  0  0  0  0  0  0  0  0  0
    6.3854    1.5039    0.0000 C   0  0  0  0  0  0  0  0  0  0  0  0
    7.1955    1.6598    0.0000 O   0  0  0  0  0  0  0  0  0  0  0  0
    5.8453    2.1275    0.0000 C   0  0  0  0  0  0  0  0  0  0  0  0
    5.8498   -0.3417    0.0000 C   0  0  0  0  0  0  0  0  0  0  0  0
  1  2  1  0  0  0  0
  2  3  2  0  0  0  0
  2  4  1  0  0  0  0
  4  5  1  0  0  0  0
  5  6  1  0  0  0  0
  6  7  1  0  0  0  0
  7  8  1  0  0  0  0
  8  9  1  0  0  0  0
  9 10  1  0  0  0  0
 10 11  1  0  0  0  0
  6 11  1  0  0  0  0
 11 12  1  0  0  0  0
 12 13  1  0  0  0  0
 13 14  1  0  0  0  0
 14 15  1  0  0  0  0
 10 15  1  0  0  0  0
 15 16  1  0  0  0  0
 16 17  1  0  0  0  0
 17 18  4  0  0  0  0
 18 19  1  0  0  0  0
 14 19  1  0  0  0  0
 18 20  4  0  0  0  0
 20 21  4  0  0  0  0
 21 22  4  0  0  0  0
 22 23  4  0  0  0  0
 17 23  4  0  0  0  0
 23 24  2  0  0  0  0
 21 25  1  0  0  0  0
 25 26  4  0  0  0  0
 26 27  4  0  0  0  0
 27 28  4  0  0  0  0
 28 29  4  0  0  0  0
 29 30  4  0  0  0  0
 25 30  4  0  0  0  0
 16 31  1  0  0  0  0
 14 32  1  0  0  0  0
 13 33  1  0  0  0  0
 33 34  1  0  0  0  0
 34 35  2  0  0  0  0
 34 36  1  0  0  0  0
 10 37  1  0  0  0  0
  7 38  1  0  0  0  0
 38 39  1  0  0  0  0
 39 40  2  0  0  0  0
 39 41  1  0  0  0  0
  6 42  1  0  0  0  0
M  END
> <From>
www.bindingDB.org

> <BindingDB Reactant_set_id>
765826

> <Ligand InChI>
InChI=1S/C31H37NO10/c1-16(33)38-15-30(5)22-13-24(40-18(3)35)31(6)27(29(22,4)10-9-23(30)39-17(2)34)26(36)25-21(42-31)12-20(41-28(25)37)19-8-7-11-32-14-19/h7-8,11-12,14,22-24,26-27,36H,9-10,13,15H2,1-6H3

> <Ligand InChI Key>
PMMQOFWSZRQWEV-UHFFFAOYSA-N

> <BindingDB MonomerID>
383175

> <BindingDB Ligand Name>
US10278962, Pyripyropene A

> <Target Name>
Sterol O-acyltransferase 2

> <Target Source Organism According to Curator or DataSource>


> <Ki (nM)>


> <IC50 (nM)>
 179

> <Kd (nM)>


> <EC50 (nM)>


> <kon (M-1-s-1)>


> <koff (s-1)>


> <pH>


> <Temp (C)>


> <Curation/DataSource>
US Patent

> <Article DOI>


> <BindingDB Entry DOI>
10.7270/Q2CF9SF8

> <PMID>


> <PubChem AID>
aid1798542

> <Patent Number>
US10278962

> <Authors>
Nan, F; Li, B; Zhan, Y; Zhang, X; Xiong, Y; Hu, X; Zhang, Y

> <Institution>
Shanghai Institute of Materia Medica, Chinese Academy of Sciences

> <Link to Ligand in BindingDB>
http://www.bindingdb.org/bind/chemsearch/marvin/MolStructure.jsp?monomerid=383175

> <Link to Target in BindingDB>
http://www.bindingdb.org/jsp/dbsearch/PrimarySearch_ki.jsp?energyterm=kJ/mole&tag=pol&polymerid=7773&target=Sterol+O-acyltransferase+2&column=ki&startPg=0&Increment=50&submit=Search

> <Link to Ligand-Target Pair in BindingDB>
http://www.bindingdb.org/jsp/dbsearch/PrimarySearch_ki.jsp?energyterm=kJ/mole&tag=r21&monomerid=383175&enzyme=Sterol+O-acyltransferase+2&column=ki&startPg=0&Increment=50&submit=Search

> <Ligand HET ID in PDB>
7T8

> <PDB ID(s) for Ligand-Target Complex>
7N6Q

> <PubChem CID>
10325960

> <PubChem SID>
404852470

> <ChEBI ID of Ligand>


> <ChEMBL ID of Ligand>


> <DrugBank ID of Ligand>


> <IUPHAR_GRAC ID of Ligand>


> <KEGG ID of Ligand>


> <ZINC ID of Ligand>


> <Number of Protein Chains in Target (>1 implies a multichain complex)>
1

> <BindingDB Target Chain Sequence>
MEPGGARLRLQRTEGLGGERERQPCGDGNTETHRAPDLVQWTRHMEAVKAQLLEQAQGQLRELLDRAMREAIQSYPSQDKPLPPPPPGSLSRTQEPSLGKQKVFIIRKSLLDELMEVQHFRTIYHMFIAGLCVFIISTLAIDFIDEGRLLLEFDLLIFSFGQLPLALVTWVPMFLSTLLAPYQALRLWARGTWTQATGLGCALLAAHAVVLCALPVHVAVEHQLPPASRCVLVFEQVRFLMKSYSFLREAVPGTLRARRGEGIQAPSFSSYLYFLFCPTLIYRETYPRTPYVRWNYVAKNFAQALGCVLYACFILGRLCVPVFANMSREPFSTRALVLSILHATLPGIFMLLLIFFAFLHCWLNAFAEMLRFGDRMFYRDWWNSTSFSNYYRTWNVVVHDWLYSYVYQDGLRLLGARARGVAMLGVFLVSAVAHEYIFCFVLGFFYPVMLILFLVIGGMLNFMMHDQRTGPAWNVLMWTMLFLGQGIQVSLYCQEWYARRHCPLPQATFWGLVTPRSWSCHT

> <PDB ID(s) of Target Chain>


> <UniProt (SwissProt) Recommended Name of Target Chain>
Sterol O-acyltransferase 2

> <UniProt (SwissProt) Entry Name of Target Chain>
ACAT-2

> <UniProt (SwissProt) Primary ID of Target Chain>
O75908

> <UniProt (SwissProt) Secondary ID(s) of Target Chain>
F5H7W4 I6L9H9 Q4VB99 Q4VBA1 Q96TD4 Q9UNR2

> <UniProt (SwissProt) Alternative ID(s) of Target Chain>


> <UniProt (TrEMBL) Submitted Name of Target Chain>


> <UniProt (TrEMBL) Entry Name of Target Chain>


> <UniProt (TrEMBL) Primary ID of Target Chain>


> <UniProt (TrEMBL) Secondary ID(s) of Target Chain>


> <UniProt (TrEMBL) Alternative ID(s) of Target Chain>


$$$$

  Mrv0541 11241417102D          

 48 53  0  0  0  0            999 V2000
    3.9584   -6.5501    0.0000 C   0  0  0  0  0  0  0  0  0  0  0  0
    3.5501   -5.8375    0.0000 C   0  0  2  0  0  0  0  0  0  0  0  0
    3.1371   -6.5475    0.0000 C   0  0  0  0  0  0  0  0  0  0  0  0
    2.8417   -4.6043    0.0000 C   0  0  0  0  0  0  0  0  0  0  0  0
    2.8417   -5.4293    0.0000 C   0  0  2  0  0  0  0  0  0  0  0  0
    3.5538   -4.1876    0.0000 C   0  0  0  0  0  0  0  0  0  0  0  0
    4.2657   -4.6043    0.0000 C   0  0  1  0  0  0  0  0  0  0  0  0
    4.2669   -5.4293    0.0000 C   0  0  1  0  0  0  0  0  0  0  0  0
    4.9779   -5.8386    0.0000 C   0  0  0  0  0  0  0  0  0  0  0  0
    5.6925   -5.4275    0.0000 C   0  0  1  0  0  0  0  0  0  0  0  0
    4.9758   -4.1885    0.0000 C   0  0  2  0  0  0  0  0  0  0  0  0
    5.6911   -4.6071    0.0000 C   0  0  2  0  0  0  0  0  0  0  0  0
    6.4070   -4.1991    0.0000 O   0  0  0  0  0  0  0  0  0  0  0  0
    4.9766   -3.3622    0.0000 C   0  0  2  0  0  0  0  0  0  0  0  0
    5.6989   -2.9526    0.0000 C   0  0  0  0  0  0  0  0  0  0  0  0
    6.4170   -3.3748    0.0000 C   0  0  0  0  0  0  0  0  0  0  0  0
    7.1377   -2.9662    0.0000 C   0  0  0  0  0  0  0  0  0  0  0  0
    7.1466   -2.1339    0.0000 C   0  0  0  0  0  0  0  0  0  0  0  0
    6.4284   -1.7117    0.0000 O   0  0  0  0  0  0  0  0  0  0  0  0
    5.7015   -2.1219    0.0000 C   0  0  0  0  0  0  0  0  0  0  0  0
    7.8603   -1.7297    0.0000 C   0  0  0  0  0  0  0  0  0  0  0  0
    8.5713   -2.1505    0.0000 C   0  0  0  0  0  0  0  0  0  0  0  0
    9.2891   -1.7453    0.0000 N   0  0  0  0  0  0  0  0  0  0  0  0
    9.2971   -0.9194    0.0000 C   0  0  0  0  0  0  0  0  0  0  0  0
    8.5815   -0.5004    0.0000 C   0  0  0  0  0  0  0  0  0  0  0  0
    7.8667   -0.9080    0.0000 C   0  0  0  0  0  0  0  0  0  0  0  0
    4.9897   -1.7048    0.0000 O   0  0  0  0  0  0  0  0  0  0  0  0
    6.4069   -5.8399    0.0000 O   0  0  0  0  0  0  0  0  0  0  0  0
    7.1214   -5.4273    0.0000 C   0  0  0  0  0  0  0  0  0  0  0  0
    7.8360   -5.8397    0.0000 C   0  0  0  0  0  0  0  0  0  0  0  0
    7.1213   -4.6022    0.0000 O   0  0  0  0  0  0  0  0  0  0  0  0
    2.1279   -5.8428    0.0000 O   0  0  0  0  0  0  0  0  0  0  0  0
    1.4128   -5.4313    0.0000 C   0  0  0  0  0  0  0  0  0  0  0  0
    0.6988   -5.8449    0.0000 C   0  0  0  0  0  0  0  0  0  0  0  0
    1.4116   -4.6063    0.0000 O   0  0  0  0  0  0  0  0  0  0  0  0
    3.5436   -7.2633    0.0000 O   0  0  0  0  0  0  0  0  0  0  0  0
    3.9538   -7.9790    0.0000 C   0  0  0  0  0  0  0  0  0  0  0  0
    3.5391   -8.6922    0.0000 C   0  0  0  0  0  0  0  0  0  0  0  0
    4.7788   -7.9817    0.0000 O   0  0  0  0  0  0  0  0  0  0  0  0
    4.2639   -2.9465    0.0000 O   0  0  0  0  0  0  0  0  0  0  0  0
    4.2584   -3.7792    0.0000 C   0  0  0  0  0  0  0  0  0  0  0  0
    5.6834   -3.7792    0.0000 C   0  0  0  0  0  0  0  0  0  0  0  0
    7.8307   -6.6637    0.0000 C   0  0  0  0  0  0  0  0  0  0  0  0
    8.5445   -7.0760    0.0000 C   0  0  0  0  0  0  0  0  0  0  0  0
    9.2599   -6.6634    0.0000 C   0  0  0  0  0  0  0  0  0  0  0  0
    9.2572   -5.8341    0.0000 C   0  0  0  0  0  0  0  0  0  0  0  0
    8.5429   -5.4254    0.0000 C   0  0  0  0  0  0  0  0  0  0  0  0
    9.9750   -7.0749    0.0000 N   0  0  0  0  0  0  0  0  0  0  0  0
  2  1  1  6  0  0  0
  2  3  1  1  0  0  0
  5  4  1  0  0  0  0
  4  6  1  0  0  0  0
  2  5  1  0  0  0  0
  8  2  1  0  0  0  0
  7  6  1  0  0  0  0
  7  8  1  0  0  0  0
 11  7  1  1  0  0  0
  8  9  1  1  0  0  0
 10  9  1  0  0  0  0
 12 10  1  0  0  0  0
 11 12  1  0  0  0  0
 11 14  1  0  0  0  0
 12 13  1  0  0  0  0
 13 16  1  0  0  0  0
 14 15  1  0  0  0  0
 15 16  2  0  0  0  0
 15 20  1  0  0  0  0
 16 17  1  0  0  0  0
 17 18  2  0  0  0  0
 18 19  1  0  0  0  0
 19 20  1  0  0  0  0
 21 22  2  0  0  0  0
 22 23  1  0  0  0  0
 23 24  2  0  0  0  0
 24 25  1  0  0  0  0
 25 26  2  0  0  0  0
 26 21  1  0  0  0  0
 18 21  1  0  0  0  0
 20 27  2  0  0  0  0
 10 28  1  1  0  0  0
 28 29  1  0  0  0  0
 29 30  1  0  0  0  0
 29 31  2  0  0  0  0
  5 32  1  1  0  0  0
 32 33  1  0  0  0  0
 33 34  1  0  0  0  0
 33 35  2  0  0  0  0
  1 36  1  0  0  0  0
 36 37  1  0  0  0  0
 37 38  1  0  0  0  0
 37 39  2  0  0  0  0
 14 40  1  1  0  0  0
  7 41  1  1  0  0  0
 12 42  1  1  0  0  0
 30 43  2  0  0  0  0
 43 44  1  0  0  0  0
 44 45  2  0  0  0  0
 45 46  1  0  0  0  0
 46 47  2  0  0  0  0
 47 30  1  0  0  0  0
 45 48  1  0  0  0  0
M  END
> <From>
www.bindingDB.org

> <BindingDB Reactant_set_id>
51053271

> <Ligand InChI>
InChI=1S/C36H40N2O10/c1-19(39)44-18-35(4)26-16-28(47-32(42)21-8-10-23(37)11-9-21)36(5)31(34(26,3)13-12-27(35)45-20(2)40)30(41)29-25(48-36)15-24(46-33(29)43)22-7-6-14-38-17-22/h6-11,14-15,17,26-28,30-31,41H,12-13,16,18,37H2,1-5H3/t26-,27+,28+,30+,31-,34+,35+,36-/m1/s1

> <Ligand InChI Key>
RDQBPSHUMNJMDS-HRSZXCBJSA-N

> <BindingDB MonomerID>
50429581

> <BindingDB Ligand Name>
CHEMBL2334208

> <Target Name>
Sterol O-acyltransferase 2

> <Target Source Organism According to Curator or DataSource>


> <Ki (nM)>


> <IC50 (nM)>
 200

> <Kd (nM)>


> <EC50 (nM)>


> <kon (M-1-s-1)>


> <koff (s-1)>


> <pH>


> <Temp (C)>


> <Curation/DataSource>
ChEMBL

> <Article DOI>
10.1016/j.bmcl.2012.12.099

> <BindingDB Entry DOI>
10.7270/Q2P270HW

> <PMID>
23369538

> <PubChem AID>


> <Patent Number>


> <Authors>
Ohtawa, M; Yamazaki, H; Ohte, S; Matsuda, D; Ohshiro, T; Rudel, LL; Omura, S; Tomoda, H; Nagamitsu, T

> <Institution>
Kitasato University

> <Link to Ligand in BindingDB>
http://www.bindingdb.org/bind/chemsearch/marvin/MolStructure.jsp?monomerid=50429581

> <Link to Target in BindingDB>
http://www.bindingdb.org/jsp/dbsearch/PrimarySearch_ki.jsp?energyterm=kJ/mole&tag=pol&polymerid=7773&target=Sterol+O-acyltransferase+2&column=ki&startPg=0&Increment=50&submit=Search

> <Link to Ligand-Target Pair in BindingDB>
http://www.bindingdb.org/jsp/dbsearch/PrimarySearch_ki.jsp?energyterm=kJ/mole&tag=r21&monomerid=50429581&enzyme=Sterol+O-acyltransferase+2&column=ki&startPg=0&Increment=50&submit=Search

> <Ligand HET ID in PDB>


> <PDB ID(s) for Ligand-Target Complex>


> <PubChem CID>
71718842

> <PubChem SID>
164158456

> <ChEBI ID of Ligand>


> <ChEMBL ID of Ligand>
CHEMBL2334208

> <DrugBank ID of Ligand>


> <IUPHAR_GRAC ID of Ligand>


> <KEGG ID of Ligand>


> <ZINC ID of Ligand>
ZINC95591244

> <Number of Protein Chains in Target (>1 implies a multichain complex)>
1

> <BindingDB Target Chain Sequence>
MEPGGARLRLQRTEGLGGERERQPCGDGNTETHRAPDLVQWTRHMEAVKAQLLEQAQGQLRELLDRAMREAIQSYPSQDKPLPPPPPGSLSRTQEPSLGKQKVFIIRKSLLDELMEVQHFRTIYHMFIAGLCVFIISTLAIDFIDEGRLLLEFDLLIFSFGQLPLALVTWVPMFLSTLLAPYQALRLWARGTWTQATGLGCALLAAHAVVLCALPVHVAVEHQLPPASRCVLVFEQVRFLMKSYSFLREAVPGTLRARRGEGIQAPSFSSYLYFLFCPTLIYRETYPRTPYVRWNYVAKNFAQALGCVLYACFILGRLCVPVFANMSREPFSTRALVLSILHATLPGIFMLLLIFFAFLHCWLNAFAEMLRFGDRMFYRDWWNSTSFSNYYRTWNVVVHDWLYSYVYQDGLRLLGARARGVAMLGVFLVSAVAHEYIFCFVLGFFYPVMLILFLVIGGMLNFMMHDQRTGPAWNVLMWTMLFLGQGIQVSLYCQEWYARRHCPLPQATFWGLVTPRSWSCHT

> <PDB ID(s) of Target Chain>


> <UniProt (SwissProt) Recommended Name of Target Chain>
Sterol O-acyltransferase 2

> <UniProt (SwissProt) Entry Name of Target Chain>
ACAT-2

> <UniProt (SwissProt) Primary ID of Target Chain>
O75908

> <UniProt (SwissProt) Secondary ID(s) of Target Chain>
F5H7W4 I6L9H9 Q4VB99 Q4VBA1 Q96TD4 Q9UNR2

> <UniProt (SwissProt) Alternative ID(s) of Target Chain>


> <UniProt (TrEMBL) Submitted Name of Target Chain>


> <UniProt (TrEMBL) Entry Name of Target Chain>


> <UniProt (TrEMBL) Primary ID of Target Chain>


> <UniProt (TrEMBL) Secondary ID(s) of Target Chain>


> <UniProt (TrEMBL) Alternative ID(s) of Target Chain>


$$$$

  Mrv0541 11241417102D          

 49 54  0  0  0  0            999 V2000
   14.0640  -10.9327    0.0000 C   0  0  0  0  0  0  0  0  0  0  0  0
    9.7671  -13.7852    0.0000 C   0  0  0  0  0  0  0  0  0  0  0  0
   10.1818  -13.0720    0.0000 C   0  0  0  0  0  0  0  0  0  0  0  0
   14.7725  -12.1690    0.0000 C   0  0  0  0  0  0  0  0  0  0  0  0
    8.3559  -10.9358    0.0000 O   0  0  0  0  0  0  0  0  0  0  0  0
   11.9269   -8.0456    0.0000 C   0  0  0  0  0  0  0  0  0  0  0  0
    7.6396   -9.6993    0.0000 O   0  0  0  0  0  0  0  0  0  0  0  0
    9.7781  -10.9305    0.0000 C   0  0  1  0  0  0  0  0  0  0  0  0
   12.6450   -8.4678    0.0000 C   0  0  0  0  0  0  0  0  0  0  0  0
   14.0883   -6.8227    0.0000 C   0  0  0  0  0  0  0  0  0  0  0  0
    7.6408  -10.5243    0.0000 C   0  0  0  0  0  0  0  0  0  0  0  0
   15.5171   -6.8383    0.0000 N   0  0  0  0  0  0  0  0  0  0  0  0
   14.0947   -6.0010    0.0000 C   0  0  0  0  0  0  0  0  0  0  0  0
   12.6564   -6.8047    0.0000 O   0  0  0  0  0  0  0  0  0  0  0  0
    9.0697   -9.6973    0.0000 C   0  0  0  0  0  0  0  0  0  0  0  0
   11.0068  -13.0747    0.0000 O   0  0  0  0  0  0  0  0  0  0  0  0
   14.0587  -11.7567    0.0000 C   0  0  0  0  0  0  0  0  0  0  0  0
   15.4852  -10.9271    0.0000 C   0  0  0  0  0  0  0  0  0  0  0  0
   11.2038   -9.2815    0.0000 C   0  0  2  0  0  0  0  0  0  0  0  0
   13.3493   -9.6952    0.0000 O   0  0  0  0  0  0  0  0  0  0  0  0
   12.6349  -10.9329    0.0000 O   0  0  0  0  0  0  0  0  0  0  0  0
   14.8095   -5.5934    0.0000 C   0  0  0  0  0  0  0  0  0  0  0  0
   11.9191   -9.7001    0.0000 C   0  0  1  0  0  0  0  0  0  0  0  0
   10.4919   -8.0395    0.0000 O   0  0  0  0  0  0  0  0  0  0  0  0
   10.4949  -10.5223    0.0000 C   0  0  1  0  0  0  0  0  0  0  0  0
   11.9205  -10.5205    0.0000 C   0  0  2  0  0  0  0  0  0  0  0  0
    9.3651  -11.6405    0.0000 C   0  0  0  0  0  0  0  0  0  0  0  0
    9.0697  -10.5223    0.0000 C   0  0  2  0  0  0  0  0  0  0  0  0
   11.9295   -7.2149    0.0000 C   0  0  0  0  0  0  0  0  0  0  0  0
   13.3494  -10.5203    0.0000 C   0  0  0  0  0  0  0  0  0  0  0  0
   11.2046   -8.4552    0.0000 C   0  0  1  0  0  0  0  0  0  0  0  0
   13.3746   -7.2269    0.0000 C   0  0  0  0  0  0  0  0  0  0  0  0
   10.4937   -9.6973    0.0000 C   0  0  2  0  0  0  0  0  0  0  0  0
   12.6350   -9.2921    0.0000 O   0  0  0  0  0  0  0  0  0  0  0  0
    6.9268  -10.9379    0.0000 C   0  0  0  0  0  0  0  0  0  0  0  0
   15.5251   -6.0124    0.0000 C   0  0  0  0  0  0  0  0  0  0  0  0
   11.2177   -6.7978    0.0000 O   0  0  0  0  0  0  0  0  0  0  0  0
   14.7709  -10.5184    0.0000 C   0  0  0  0  0  0  0  0  0  0  0  0
    9.7716  -12.3563    0.0000 O   0  0  0  0  0  0  0  0  0  0  0  0
   10.1864  -11.6431    0.0000 C   0  0  0  0  0  0  0  0  0  0  0  0
   13.3657   -8.0592    0.0000 C   0  0  0  0  0  0  0  0  0  0  0  0
    9.7818   -9.2806    0.0000 C   0  0  0  0  0  0  0  0  0  0  0  0
   11.2059  -10.9316    0.0000 C   0  0  0  0  0  0  0  0  0  0  0  0
   15.4879  -11.7564    0.0000 C   0  0  0  0  0  0  0  0  0  0  0  0
   10.4864   -8.8722    0.0000 C   0  0  0  0  0  0  0  0  0  0  0  0
   14.7993   -7.2435    0.0000 C   0  0  0  0  0  0  0  0  0  0  0  0
   11.9114   -8.8722    0.0000 C   0  0  0  0  0  0  0  0  0  0  0  0
   14.7666   -9.7012    0.0000 O   0  0  0  0  0  0  0  0  0  0  0  0
   15.4722   -9.2889    0.0000 C   0  0  0  0  0  0  0  0  0  0  0  0
 12 36  1  0  0  0  0
 26 43  1  0  0  0  0
 23 26  1  0  0  0  0
 19 31  1  1  0  0  0
 23 34  1  0  0  0  0
 19 33  1  0  0  0  0
 22 13  1  0  0  0  0
 33 42  1  0  0  0  0
  8 28  1  0  0  0  0
  6  9  2  0  0  0  0
 31 24  1  1  0  0  0
 29 37  2  0  0  0  0
 18 38  1  0  0  0  0
 25  8  1  0  0  0  0
 34  9  1  0  0  0  0
 36 22  2  0  0  0  0
 46 12  2  0  0  0  0
 19 23  1  0  0  0  0
 11 35  1  0  0  0  0
 41 32  2  0  0  0  0
 31  6  1  0  0  0  0
  3  2  1  0  0  0  0
 32 14  1  0  0  0  0
 44 18  2  0  0  0  0
 14 29  1  0  0  0  0
 38  1  2  0  0  0  0
 33 45  1  1  0  0  0
 17  4  2  0  0  0  0
  4 44  1  0  0  0  0
 30  1  1  0  0  0  0
 23 47  1  1  0  0  0
 39  3  1  0  0  0  0
 13 10  2  0  0  0  0
 28 15  1  0  0  0  0
 21 30  1  0  0  0  0
  8 27  1  1  0  0  0
 33 25  1  0  0  0  0
 28  5  1  1  0  0  0
 15 42  1  0  0  0  0
 25 43  1  1  0  0  0
 40 39  1  0  0  0  0
 26 21  1  1  0  0  0
  6 29  1  0  0  0  0
 32 10  1  0  0  0  0
  3 16  2  0  0  0  0
  5 11  1  0  0  0  0
  1 17  1  0  0  0  0
 11  7  2  0  0  0  0
  8 40  1  6  0  0  0
  9 41  1  0  0  0  0
 10 46  1  0  0  0  0
 30 20  2  0  0  0  0
 38 48  1  0  0  0  0
 48 49  1  0  0  0  0
M  END
> <From>
www.bindingDB.org

> <BindingDB Reactant_set_id>
51053270

> <Ligand InChI>
InChI=1S/C37H41NO11/c1-20(39)45-19-36(4)27-17-29(48-33(42)23-11-7-8-12-24(23)44-6)37(5)32(35(27,3)14-13-28(36)46-21(2)40)31(41)30-26(49-37)16-25(47-34(30)43)22-10-9-15-38-18-22/h7-12,15-16,18,27-29,31-32,41H,13-14,17,19H2,1-6H3/t27-,28+,29+,31+,32-,35+,36+,37-/m1/s1

> <Ligand InChI Key>
QJBFPVNQIJKOCC-ZRPSWOMSSA-N

> <BindingDB MonomerID>
50429580

> <BindingDB Ligand Name>
CHEMBL2334209

> <Target Name>
Sterol O-acyltransferase 2

> <Target Source Organism According to Curator or DataSource>


> <Ki (nM)>


> <IC50 (nM)>
 230

> <Kd (nM)>


> <EC50 (nM)>


> <kon (M-1-s-1)>


> <koff (s-1)>


> <pH>


> <Temp (C)>


> <Curation/DataSource>
ChEMBL

> <Article DOI>
10.1016/j.bmcl.2012.12.099

> <BindingDB Entry DOI>
10.7270/Q2P270HW

> <PMID>
23369538

> <PubChem AID>


> <Patent Number>


> <Authors>
Ohtawa, M; Yamazaki, H; Ohte, S; Matsuda, D; Ohshiro, T; Rudel, LL; Omura, S; Tomoda, H; Nagamitsu, T

> <Institution>
Kitasato University

> <Link to Ligand in BindingDB>
http://www.bindingdb.org/bind/chemsearch/marvin/MolStructure.jsp?monomerid=50429580

> <Link to Target in BindingDB>
http://www.bindingdb.org/jsp/dbsearch/PrimarySearch_ki.jsp?energyterm=kJ/mole&tag=pol&polymerid=7773&target=Sterol+O-acyltransferase+2&column=ki&startPg=0&Increment=50&submit=Search

> <Link to Ligand-Target Pair in BindingDB>
http://www.bindingdb.org/jsp/dbsearch/PrimarySearch_ki.jsp?energyterm=kJ/mole&tag=r21&monomerid=50429580&enzyme=Sterol+O-acyltransferase+2&column=ki&startPg=0&Increment=50&submit=Search

> <Ligand HET ID in PDB>


> <PDB ID(s) for Ligand-Target Complex>


> <PubChem CID>
71559436

> <PubChem SID>
164158455

> <ChEBI ID of Ligand>


> <ChEMBL ID of Ligand>
CHEMBL2334209

> <DrugBank ID of Ligand>


> <IUPHAR_GRAC ID of Ligand>


> <KEGG ID of Ligand>


> <ZINC ID of Ligand>
ZINC95589673

> <Number of Protein Chains in Target (>1 implies a multichain complex)>
1

> <BindingDB Target Chain Sequence>
MEPGGARLRLQRTEGLGGERERQPCGDGNTETHRAPDLVQWTRHMEAVKAQLLEQAQGQLRELLDRAMREAIQSYPSQDKPLPPPPPGSLSRTQEPSLGKQKVFIIRKSLLDELMEVQHFRTIYHMFIAGLCVFIISTLAIDFIDEGRLLLEFDLLIFSFGQLPLALVTWVPMFLSTLLAPYQALRLWARGTWTQATGLGCALLAAHAVVLCALPVHVAVEHQLPPASRCVLVFEQVRFLMKSYSFLREAVPGTLRARRGEGIQAPSFSSYLYFLFCPTLIYRETYPRTPYVRWNYVAKNFAQALGCVLYACFILGRLCVPVFANMSREPFSTRALVLSILHATLPGIFMLLLIFFAFLHCWLNAFAEMLRFGDRMFYRDWWNSTSFSNYYRTWNVVVHDWLYSYVYQDGLRLLGARARGVAMLGVFLVSAVAHEYIFCFVLGFFYPVMLILFLVIGGMLNFMMHDQRTGPAWNVLMWTMLFLGQGIQVSLYCQEWYARRHCPLPQATFWGLVTPRSWSCHT

> <PDB ID(s) of Target Chain>


> <UniProt (SwissProt) Recommended Name of Target Chain>
Sterol O-acyltransferase 2

> <UniProt (SwissProt) Entry Name of Target Chain>
ACAT-2

> <UniProt (SwissProt) Primary ID of Target Chain>
O75908

> <UniProt (SwissProt) Secondary ID(s) of Target Chain>
F5H7W4 I6L9H9 Q4VB99 Q4VBA1 Q96TD4 Q9UNR2

> <UniProt (SwissProt) Alternative ID(s) of Target Chain>


> <UniProt (TrEMBL) Submitted Name of Target Chain>


> <UniProt (TrEMBL) Entry Name of Target Chain>


> <UniProt (TrEMBL) Primary ID of Target Chain>


> <UniProt (TrEMBL) Secondary ID(s) of Target Chain>


> <UniProt (TrEMBL) Alternative ID(s) of Target Chain>


$$$$
00038001.cdx
  Mrv0541 12012113462D          

 38 41  0  0  0  0            999 V2000
    0.9630  -10.1390    0.0000 C   0  0  0  0  0  0  0  0  0  0  0  0
    0.9630  -10.9640    0.0000 C   0  0  1  0  0  0  0  0  0  0  0  0
    1.6775  -11.3765    0.0000 C   0  0  0  0  0  0  0  0  0  0  0  0
    2.3920  -10.9640    0.0000 C   0  0  1  0  0  0  0  0  0  0  0  0
    2.3920  -10.1390    0.0000 C   0  0  2  0  0  0  0  0  0  0  0  0
    1.6775   -9.7265    0.0000 C   0  0  2  0  0  0  0  0  0  0  0  0
    1.6775   -8.9015    0.0000 C   0  0  1  0  0  0  0  0  0  0  0  0
    3.1065   -9.7265    0.0000 O   0  0  0  0  0  0  0  0  0  0  0  0
    0.2486  -11.3765    0.0000 C   0  0  3  0  0  0  0  0  0  0  0  0
   -0.4659  -10.9640    0.0000 C   0  0  0  0  0  0  0  0  0  0  0  0
    0.2486  -12.2015    0.0000 O   0  0  0  0  0  0  0  0  0  0  0  0
    3.1065  -11.3765    0.0000 O   0  0  0  0  0  0  0  0  0  0  0  0
    0.9630   -8.4890    0.0000 O   0  0  0  0  0  0  0  0  0  0  0  0
    2.3920   -8.4890    0.0000 C   0  0  0  0  0  0  0  0  0  0  0  0
    3.1065   -8.9015    0.0000 C   0  0  0  0  0  0  0  0  0  0  0  0
    3.8209   -8.4890    0.0000 C   0  0  0  0  0  0  0  0  0  0  0  0
    2.3920   -9.3140    0.0000 C   0  0  0  0  0  0  0  0  0  0  0  0
    3.8209   -7.6640    0.0000 C   0  0  0  0  0  0  0  0  0  0  0  0
    3.1065   -7.2515    0.0000 O   0  0  0  0  0  0  0  0  0  0  0  0
    2.3920   -7.6640    0.0000 C   0  0  0  0  0  0  0  0  0  0  0  0
    1.6775   -7.2515    0.0000 O   0  0  0  0  0  0  0  0  0  0  0  0
    4.5354   -7.2515    0.0000 C   0  0  0  0  0  0  0  0  0  0  0  0
    5.2499   -7.6640    0.0000 C   0  0  0  0  0  0  0  0  0  0  0  0
    5.9643   -7.2515    0.0000 N   0  0  0  0  0  0  0  0  0  0  0  0
    5.9643   -6.4265    0.0000 C   0  0  0  0  0  0  0  0  0  0  0  0
    4.5354   -6.4265    0.0000 C   0  0  0  0  0  0  0  0  0  0  0  0
   -1.1804  -11.3765    0.0000 O   0  0  0  0  0  0  0  0  0  0  0  0
    0.2486  -10.5515    0.0000 C   0  0  0  0  0  0  0  0  0  0  0  0
    5.2454   -6.0218    0.0000 C   0  0  0  0  0  0  0  0  0  0  0  0
   -1.8948  -10.9640    0.0000 C   0  0  0  0  0  0  0  0  0  0  0  0
   -2.6093  -11.3765    0.0000 C   0  0  0  0  0  0  0  0  0  0  0  0
   -1.8948  -10.1390    0.0000 O   0  0  0  0  0  0  0  0  0  0  0  0
   -0.4659  -12.6140    0.0000 C   0  0  0  0  0  0  0  0  0  0  0  0
   -1.1803  -12.2015    0.0000 O   0  0  0  0  0  0  0  0  0  0  0  0
   -0.4659  -13.4390    0.0000 C   0  0  0  0  0  0  0  0  0  0  0  0
    3.1065  -12.2015    0.0000 C   0  0  0  0  0  0  0  0  0  0  0  0
    2.3921  -12.6140    0.0000 O   0  0  0  0  0  0  0  0  0  0  0  0
    3.8210  -12.6140    0.0000 C   0  0  0  0  0  0  0  0  0  0  0  0
  2  1  1  0  0  0  0
  2  3  1  0  0  0  0
  4  3  1  0  0  0  0
  5  4  1  0  0  0  0
  5  6  1  0  0  0  0
  6  1  1  1  0  0  0
  6  7  1  0  0  0  0
  5  8  1  0  0  0  0
  2  9  1  1  0  0  0
  9 10  1  4  0  0  0
  9 11  1  0  0  0  0
  4 12  1  1  0  0  0
  7 13  1  1  0  0  0
  7 14  1  0  0  0  0
 14 15  4  0  0  0  0
 15 16  4  0  0  0  0
  8 15  1  0  0  0  0
  5 17  1  1  0  0  0
 16 18  4  0  0  0  0
 18 19  4  0  0  0  0
 19 20  4  0  0  0  0
 20 14  4  0  0  0  0
 20 21  2  0  0  0  0
 18 22  1  0  0  0  0
 22 23  4  0  0  0  0
 23 24  4  0  0  0  0
 24 25  4  0  0  0  0
 26 22  4  0  0  0  0
 10 27  1  0  0  0  0
  9 28  1  0  0  0  0
 25 29  4  0  0  0  0
 29 26  4  0  0  0  0
 27 30  1  0  0  0  0
 30 31  1  0  0  0  0
 30 32  2  0  0  0  0
 11 33  1  0  0  0  0
 33 35  1  0  0  0  0
 33 34  2  0  0  0  0
 12 36  1  0  0  0  0
 36 38  1  0  0  0  0
 36 37  2  0  0  0  0
M  END
> <From>
www.bindingDB.org

> <BindingDB Reactant_set_id>
765832

> <Ligand InChI>
InChI=1S/C27H31NO10/c1-14(29)34-13-26(4,37-16(3)31)18-9-19-24(32)23-21(38-27(19,5)22(10-18)35-15(2)30)11-20(36-25(23)33)17-7-6-8-28-12-17/h6-8,11-12,18-19,22,24,32H,9-10,13H2,1-5H3/t18-,19-,22-,24+,26?,27-/m0/s1

> <Ligand InChI Key>
NIGGKHQHUNJNPM-IWOUTKOISA-N

> <BindingDB MonomerID>
383182

> <BindingDB Ligand Name>
US10278962, Compound 16

> <Target Name>
Sterol O-acyltransferase 2

> <Target Source Organism According to Curator or DataSource>


> <Ki (nM)>


> <IC50 (nM)>
 245

> <Kd (nM)>


> <EC50 (nM)>


> <kon (M-1-s-1)>


> <koff (s-1)>


> <pH>


> <Temp (C)>


> <Curation/DataSource>
US Patent

> <Article DOI>


> <BindingDB Entry DOI>
10.7270/Q2CF9SF8

> <PMID>


> <PubChem AID>
aid1798542

> <Patent Number>
US10278962

> <Authors>
Nan, F; Li, B; Zhan, Y; Zhang, X; Xiong, Y; Hu, X; Zhang, Y

> <Institution>
Shanghai Institute of Materia Medica, Chinese Academy of Sciences

> <Link to Ligand in BindingDB>
http://www.bindingdb.org/bind/chemsearch/marvin/MolStructure.jsp?monomerid=383182

> <Link to Target in BindingDB>
http://www.bindingdb.org/jsp/dbsearch/PrimarySearch_ki.jsp?energyterm=kJ/mole&tag=pol&polymerid=7773&target=Sterol+O-acyltransferase+2&column=ki&startPg=0&Increment=50&submit=Search

> <Link to Ligand-Target Pair in BindingDB>
http://www.bindingdb.org/jsp/dbsearch/PrimarySearch_ki.jsp?energyterm=kJ/mole&tag=r21&monomerid=383182&enzyme=Sterol+O-acyltransferase+2&column=ki&startPg=0&Increment=50&submit=Search

> <Ligand HET ID in PDB>


> <PDB ID(s) for Ligand-Target Complex>


> <PubChem CID>
134188208

> <PubChem SID>
404852476

> <ChEBI ID of Ligand>


> <ChEMBL ID of Ligand>


> <DrugBank ID of Ligand>


> <IUPHAR_GRAC ID of Ligand>


> <KEGG ID of Ligand>


> <ZINC ID of Ligand>


> <Number of Protein Chains in Target (>1 implies a multichain complex)>
1

> <BindingDB Target Chain Sequence>
MEPGGARLRLQRTEGLGGERERQPCGDGNTETHRAPDLVQWTRHMEAVKAQLLEQAQGQLRELLDRAMREAIQSYPSQDKPLPPPPPGSLSRTQEPSLGKQKVFIIRKSLLDELMEVQHFRTIYHMFIAGLCVFIISTLAIDFIDEGRLLLEFDLLIFSFGQLPLALVTWVPMFLSTLLAPYQALRLWARGTWTQATGLGCALLAAHAVVLCALPVHVAVEHQLPPASRCVLVFEQVRFLMKSYSFLREAVPGTLRARRGEGIQAPSFSSYLYFLFCPTLIYRETYPRTPYVRWNYVAKNFAQALGCVLYACFILGRLCVPVFANMSREPFSTRALVLSILHATLPGIFMLLLIFFAFLHCWLNAFAEMLRFGDRMFYRDWWNSTSFSNYYRTWNVVVHDWLYSYVYQDGLRLLGARARGVAMLGVFLVSAVAHEYIFCFVLGFFYPVMLILFLVIGGMLNFMMHDQRTGPAWNVLMWTMLFLGQGIQVSLYCQEWYARRHCPLPQATFWGLVTPRSWSCHT

> <PDB ID(s) of Target Chain>


> <UniProt (SwissProt) Recommended Name of Target Chain>
Sterol O-acyltransferase 2

> <UniProt (SwissProt) Entry Name of Target Chain>
ACAT-2

> <UniProt (SwissProt) Primary ID of Target Chain>
O75908

> <UniProt (SwissProt) Secondary ID(s) of Target Chain>
F5H7W4 I6L9H9 Q4VB99 Q4VBA1 Q96TD4 Q9UNR2

> <UniProt (SwissProt) Alternative ID(s) of Target Chain>


> <UniProt (TrEMBL) Submitted Name of Target Chain>


> <UniProt (TrEMBL) Entry Name of Target Chain>


> <UniProt (TrEMBL) Primary ID of Target Chain>


> <UniProt (TrEMBL) Secondary ID(s) of Target Chain>


> <UniProt (TrEMBL) Alternative ID(s) of Target Chain>


$$$$

  Mrv0541 11241417102D          

 51 57  0  0  0  0            999 V2000
   26.8881  -12.6711    0.0000 C   0  0  0  0  0  0  0  0  0  0  0  0
   26.4798  -11.9586    0.0000 C   0  0  2  0  0  0  0  0  0  0  0  0
   26.0669  -12.6685    0.0000 C   0  0  0  0  0  0  0  0  0  0  0  0
   25.7714  -10.7253    0.0000 C   0  0  0  0  0  0  0  0  0  0  0  0
   25.7714  -11.5503    0.0000 C   0  0  2  0  0  0  0  0  0  0  0  0
   26.4835  -10.3086    0.0000 C   0  0  0  0  0  0  0  0  0  0  0  0
   27.1956  -10.7253    0.0000 C   0  0  1  0  0  0  0  0  0  0  0  0
   27.1966  -11.5503    0.0000 C   0  0  1  0  0  0  0  0  0  0  0  0
   27.9076  -11.9596    0.0000 C   0  0  0  0  0  0  0  0  0  0  0  0
   28.6222  -11.5485    0.0000 C   0  0  1  0  0  0  0  0  0  0  0  0
   27.9055  -10.3095    0.0000 C   0  0  2  0  0  0  0  0  0  0  0  0
   28.6208  -10.7281    0.0000 C   0  0  2  0  0  0  0  0  0  0  0  0
   29.3369  -10.3201    0.0000 O   0  0  0  0  0  0  0  0  0  0  0  0
   27.9064   -9.4832    0.0000 C   0  0  2  0  0  0  0  0  0  0  0  0
   28.6287   -9.0736    0.0000 C   0  0  0  0  0  0  0  0  0  0  0  0
   29.3468   -9.4958    0.0000 C   0  0  0  0  0  0  0  0  0  0  0  0
   30.0675   -9.0872    0.0000 C   0  0  0  0  0  0  0  0  0  0  0  0
   30.0764   -8.2549    0.0000 C   0  0  0  0  0  0  0  0  0  0  0  0
   29.3583   -7.8327    0.0000 O   0  0  0  0  0  0  0  0  0  0  0  0
   28.6313   -8.2429    0.0000 C   0  0  0  0  0  0  0  0  0  0  0  0
   30.7902   -7.8507    0.0000 C   0  0  0  0  0  0  0  0  0  0  0  0
   31.5011   -8.2715    0.0000 C   0  0  0  0  0  0  0  0  0  0  0  0
   32.2188   -7.8663    0.0000 N   0  0  0  0  0  0  0  0  0  0  0  0
   32.2270   -7.0404    0.0000 C   0  0  0  0  0  0  0  0  0  0  0  0
   31.5113   -6.6214    0.0000 C   0  0  0  0  0  0  0  0  0  0  0  0
   30.7964   -7.0290    0.0000 C   0  0  0  0  0  0  0  0  0  0  0  0
   27.9194   -7.8258    0.0000 O   0  0  0  0  0  0  0  0  0  0  0  0
   29.3368  -11.9609    0.0000 O   0  0  0  0  0  0  0  0  0  0  0  0
   30.0512  -11.5483    0.0000 C   0  0  0  0  0  0  0  0  0  0  0  0
   30.7657  -11.9607    0.0000 C   0  0  0  0  0  0  0  0  0  0  0  0
   30.0511  -10.7233    0.0000 O   0  0  0  0  0  0  0  0  0  0  0  0
   25.0576  -11.9638    0.0000 O   0  0  0  0  0  0  0  0  0  0  0  0
   24.3425  -11.5523    0.0000 C   0  0  0  0  0  0  0  0  0  0  0  0
   23.6286  -11.9659    0.0000 C   0  0  0  0  0  0  0  0  0  0  0  0
   24.3413  -10.7273    0.0000 O   0  0  0  0  0  0  0  0  0  0  0  0
   26.4734  -13.3843    0.0000 O   0  0  0  0  0  0  0  0  0  0  0  0
   26.8836  -14.1001    0.0000 C   0  0  0  0  0  0  0  0  0  0  0  0
   26.4688  -14.8133    0.0000 C   0  0  0  0  0  0  0  0  0  0  0  0
   27.7086  -14.1027    0.0000 O   0  0  0  0  0  0  0  0  0  0  0  0
   27.1937   -9.0675    0.0000 O   0  0  0  0  0  0  0  0  0  0  0  0
   27.1882   -9.9002    0.0000 C   0  0  0  0  0  0  0  0  0  0  0  0
   28.6132   -9.9002    0.0000 C   0  0  0  0  0  0  0  0  0  0  0  0
   32.1896  -12.7844    0.0000 C   0  0  0  0  0  0  0  0  0  0  0  0
   32.1869  -11.9551    0.0000 C   0  0  0  0  0  0  0  0  0  0  0  0
   31.4726  -11.5465    0.0000 C   0  0  0  0  0  0  0  0  0  0  0  0
   31.4743  -13.1970    0.0000 C   0  0  0  0  0  0  0  0  0  0  0  0
   30.7651  -12.7827    0.0000 C   0  0  0  0  0  0  0  0  0  0  0  0
   30.0538  -13.1896    0.0000 C   0  0  0  0  0  0  0  0  0  0  0  0
   30.0504  -14.0106    0.0000 C   0  0  0  0  0  0  0  0  0  0  0  0
   30.7643  -14.4232    0.0000 C   0  0  0  0  0  0  0  0  0  0  0  0
   31.4726  -14.0140    0.0000 C   0  0  0  0  0  0  0  0  0  0  0  0
  2  1  1  6  0  0  0
  2  3  1  1  0  0  0
  5  4  1  0  0  0  0
  4  6  1  0  0  0  0
  2  5  1  0  0  0  0
  8  2  1  0  0  0  0
  7  6  1  0  0  0  0
  7  8  1  0  0  0  0
 11  7  1  1  0  0  0
  8  9  1  1  0  0  0
 10  9  1  0  0  0  0
 12 10  1  0  0  0  0
 11 12  1  0  0  0  0
 11 14  1  0  0  0  0
 12 13  1  0  0  0  0
 13 16  1  0  0  0  0
 14 15  1  0  0  0  0
 15 16  2  0  0  0  0
 15 20  1  0  0  0  0
 16 17  1  0  0  0  0
 17 18  2  0  0  0  0
 18 19  1  0  0  0  0
 19 20  1  0  0  0  0
 21 22  2  0  0  0  0
 22 23  1  0  0  0  0
 23 24  2  0  0  0  0
 24 25  1  0  0  0  0
 25 26  2  0  0  0  0
 26 21  1  0  0  0  0
 18 21  1  0  0  0  0
 20 27  2  0  0  0  0
 10 28  1  1  0  0  0
 28 29  1  0  0  0  0
 29 30  1  0  0  0  0
 29 31  2  0  0  0  0
  5 32  1  1  0  0  0
 32 33  1  0  0  0  0
 33 34  1  0  0  0  0
 33 35  2  0  0  0  0
  1 36  1  0  0  0  0
 36 37  1  0  0  0  0
 37 38  1  0  0  0  0
 37 39  2  0  0  0  0
 14 40  1  1  0  0  0
  7 41  1  1  0  0  0
 12 42  1  1  0  0  0
 30 47  2  0  0  0  0
 46 43  2  0  0  0  0
 43 44  1  0  0  0  0
 44 45  2  0  0  0  0
 45 30  1  0  0  0  0
 46 47  1  0  0  0  0
 47 48  1  0  0  0  0
 48 49  2  0  0  0  0
 49 50  1  0  0  0  0
 50 51  2  0  0  0  0
 51 46  1  0  0  0  0
M  END
> <From>
www.bindingDB.org

> <BindingDB Reactant_set_id>
51053298

> <Ligand InChI>
InChI=1S/C40H41NO10/c1-22(42)47-21-39(4)30-19-32(50-36(45)27-14-8-11-24-10-6-7-13-26(24)27)40(5)35(38(30,3)16-15-31(39)48-23(2)43)34(44)33-29(51-40)18-28(49-37(33)46)25-12-9-17-41-20-25/h6-14,17-18,20,30-32,34-35,44H,15-16,19,21H2,1-5H3/t30-,31+,32+,34+,35-,38+,39+,40-/m1/s1

> <Ligand InChI Key>
WYTASTHOTRYDOG-ZGSMWJSFSA-N

> <BindingDB MonomerID>
50429607

> <BindingDB Ligand Name>
CHEMBL2334536

> <Target Name>
Sterol O-acyltransferase 2

> <Target Source Organism According to Curator or DataSource>


> <Ki (nM)>


> <IC50 (nM)>
 270

> <Kd (nM)>


> <EC50 (nM)>


> <kon (M-1-s-1)>


> <koff (s-1)>


> <pH>


> <Temp (C)>


> <Curation/DataSource>
ChEMBL

> <Article DOI>
10.1016/j.bmcl.2012.12.099

> <BindingDB Entry DOI>
10.7270/Q2P270HW

> <PMID>
23369538

> <PubChem AID>


> <Patent Number>


> <Authors>
Ohtawa, M; Yamazaki, H; Ohte, S; Matsuda, D; Ohshiro, T; Rudel, LL; Omura, S; Tomoda, H; Nagamitsu, T

> <Institution>
Kitasato University

> <Link to Ligand in BindingDB>
http://www.bindingdb.org/bind/chemsearch/marvin/MolStructure.jsp?monomerid=50429607

> <Link to Target in BindingDB>
http://www.bindingdb.org/jsp/dbsearch/PrimarySearch_ki.jsp?energyterm=kJ/mole&tag=pol&polymerid=7773&target=Sterol+O-acyltransferase+2&column=ki&startPg=0&Increment=50&submit=Search

> <Link to Ligand-Target Pair in BindingDB>
http://www.bindingdb.org/jsp/dbsearch/PrimarySearch_ki.jsp?energyterm=kJ/mole&tag=r21&monomerid=50429607&enzyme=Sterol+O-acyltransferase+2&column=ki&startPg=0&Increment=50&submit=Search

> <Ligand HET ID in PDB>


> <PDB ID(s) for Ligand-Target Complex>


> <PubChem CID>
71560674

> <PubChem SID>
164158482

> <ChEBI ID of Ligand>


> <ChEMBL ID of Ligand>
CHEMBL2334536

> <DrugBank ID of Ligand>


> <IUPHAR_GRAC ID of Ligand>


> <KEGG ID of Ligand>


> <ZINC ID of Ligand>
ZINC95592199

> <Number of Protein Chains in Target (>1 implies a multichain complex)>
1

> <BindingDB Target Chain Sequence>
MEPGGARLRLQRTEGLGGERERQPCGDGNTETHRAPDLVQWTRHMEAVKAQLLEQAQGQLRELLDRAMREAIQSYPSQDKPLPPPPPGSLSRTQEPSLGKQKVFIIRKSLLDELMEVQHFRTIYHMFIAGLCVFIISTLAIDFIDEGRLLLEFDLLIFSFGQLPLALVTWVPMFLSTLLAPYQALRLWARGTWTQATGLGCALLAAHAVVLCALPVHVAVEHQLPPASRCVLVFEQVRFLMKSYSFLREAVPGTLRARRGEGIQAPSFSSYLYFLFCPTLIYRETYPRTPYVRWNYVAKNFAQALGCVLYACFILGRLCVPVFANMSREPFSTRALVLSILHATLPGIFMLLLIFFAFLHCWLNAFAEMLRFGDRMFYRDWWNSTSFSNYYRTWNVVVHDWLYSYVYQDGLRLLGARARGVAMLGVFLVSAVAHEYIFCFVLGFFYPVMLILFLVIGGMLNFMMHDQRTGPAWNVLMWTMLFLGQGIQVSLYCQEWYARRHCPLPQATFWGLVTPRSWSCHT

> <PDB ID(s) of Target Chain>


> <UniProt (SwissProt) Recommended Name of Target Chain>
Sterol O-acyltransferase 2

> <UniProt (SwissProt) Entry Name of Target Chain>
ACAT-2

> <UniProt (SwissProt) Primary ID of Target Chain>
O75908

> <UniProt (SwissProt) Secondary ID(s) of Target Chain>
F5H7W4 I6L9H9 Q4VB99 Q4VBA1 Q96TD4 Q9UNR2

> <UniProt (SwissProt) Alternative ID(s) of Target Chain>


> <UniProt (TrEMBL) Submitted Name of Target Chain>


> <UniProt (TrEMBL) Entry Name of Target Chain>


> <UniProt (TrEMBL) Primary ID of Target Chain>


> <UniProt (TrEMBL) Secondary ID(s) of Target Chain>


> <UniProt (TrEMBL) Alternative ID(s) of Target Chain>


$$$$

  Mrv0541 11241417102D          

 48 53  0  0  0  0            999 V2000
    3.7084  -15.2214    0.0000 C   0  0  0  0  0  0  0  0  0  0  0  0
    3.3001  -14.5088    0.0000 C   0  0  2  0  0  0  0  0  0  0  0  0
    2.8872  -15.2187    0.0000 C   0  0  0  0  0  0  0  0  0  0  0  0
    2.5917  -13.2755    0.0000 C   0  0  0  0  0  0  0  0  0  0  0  0
    2.5917  -14.1004    0.0000 C   0  0  2  0  0  0  0  0  0  0  0  0
    3.3038  -12.8587    0.0000 C   0  0  0  0  0  0  0  0  0  0  0  0
    4.0158  -13.2755    0.0000 C   0  0  1  0  0  0  0  0  0  0  0  0
    4.0168  -14.1004    0.0000 C   0  0  1  0  0  0  0  0  0  0  0  0
    4.7280  -14.5098    0.0000 C   0  0  0  0  0  0  0  0  0  0  0  0
    5.4425  -14.0986    0.0000 C   0  0  1  0  0  0  0  0  0  0  0  0
    4.7259  -12.8597    0.0000 C   0  0  2  0  0  0  0  0  0  0  0  0
    5.4411  -13.2782    0.0000 C   0  0  2  0  0  0  0  0  0  0  0  0
    6.1572  -12.8703    0.0000 O   0  0  0  0  0  0  0  0  0  0  0  0
    4.7267  -12.0333    0.0000 C   0  0  2  0  0  0  0  0  0  0  0  0
    5.4490  -11.6238    0.0000 C   0  0  0  0  0  0  0  0  0  0  0  0
    6.1672  -12.0460    0.0000 C   0  0  0  0  0  0  0  0  0  0  0  0
    6.8878  -11.6374    0.0000 C   0  0  0  0  0  0  0  0  0  0  0  0
    6.8967  -10.8050    0.0000 C   0  0  0  0  0  0  0  0  0  0  0  0
    6.1786  -10.3829    0.0000 O   0  0  0  0  0  0  0  0  0  0  0  0
    5.4516  -10.7930    0.0000 C   0  0  0  0  0  0  0  0  0  0  0  0
    7.6105  -10.4008    0.0000 C   0  0  0  0  0  0  0  0  0  0  0  0
    8.3214  -10.8217    0.0000 C   0  0  0  0  0  0  0  0  0  0  0  0
    9.0392  -10.4164    0.0000 N   0  0  0  0  0  0  0  0  0  0  0  0
    9.0473   -9.5906    0.0000 C   0  0  0  0  0  0  0  0  0  0  0  0
    8.3316   -9.1716    0.0000 C   0  0  0  0  0  0  0  0  0  0  0  0
    7.6167   -9.5792    0.0000 C   0  0  0  0  0  0  0  0  0  0  0  0
    4.7398  -10.3759    0.0000 O   0  0  0  0  0  0  0  0  0  0  0  0
    6.1571  -14.5110    0.0000 O   0  0  0  0  0  0  0  0  0  0  0  0
    6.8716  -14.0984    0.0000 C   0  0  0  0  0  0  0  0  0  0  0  0
    7.5860  -14.5109    0.0000 C   0  0  0  0  0  0  0  0  0  0  0  0
    6.8715  -13.2735    0.0000 O   0  0  0  0  0  0  0  0  0  0  0  0
    1.8778  -14.5140    0.0000 O   0  0  0  0  0  0  0  0  0  0  0  0
    1.1627  -14.1025    0.0000 C   0  0  0  0  0  0  0  0  0  0  0  0
    0.4489  -14.5161    0.0000 C   0  0  0  0  0  0  0  0  0  0  0  0
    1.1615  -13.2775    0.0000 O   0  0  0  0  0  0  0  0  0  0  0  0
    3.2937  -15.9345    0.0000 O   0  0  0  0  0  0  0  0  0  0  0  0
    3.7039  -16.6503    0.0000 C   0  0  0  0  0  0  0  0  0  0  0  0
    3.2891  -17.3635    0.0000 C   0  0  0  0  0  0  0  0  0  0  0  0
    4.5289  -16.6529    0.0000 O   0  0  0  0  0  0  0  0  0  0  0  0
    4.0140  -11.6176    0.0000 O   0  0  0  0  0  0  0  0  0  0  0  0
    4.0085  -12.4504    0.0000 C   0  0  0  0  0  0  0  0  0  0  0  0
    5.4335  -12.4504    0.0000 C   0  0  0  0  0  0  0  0  0  0  0  0
    7.5809  -15.3349    0.0000 C   0  0  0  0  0  0  0  0  0  0  0  0
    8.2946  -15.7472    0.0000 C   0  0  0  0  0  0  0  0  0  0  0  0
    9.0101  -15.3346    0.0000 C   0  0  0  0  0  0  0  0  0  0  0  0
    9.0072  -14.5053    0.0000 C   0  0  0  0  0  0  0  0  0  0  0  0
    8.2930  -14.0967    0.0000 C   0  0  0  0  0  0  0  0  0  0  0  0
    9.7252  -15.7460    0.0000 O   0  0  0  0  0  0  0  0  0  0  0  0
  2  1  1  6  0  0  0
  2  3  1  1  0  0  0
  5  4  1  0  0  0  0
  4  6  1  0  0  0  0
  2  5  1  0  0  0  0
  8  2  1  0  0  0  0
  7  6  1  0  0  0  0
  7  8  1  0  0  0  0
 11  7  1  1  0  0  0
  8  9  1  1  0  0  0
 10  9  1  0  0  0  0
 12 10  1  0  0  0  0
 11 12  1  0  0  0  0
 11 14  1  0  0  0  0
 12 13  1  0  0  0  0
 13 16  1  0  0  0  0
 14 15  1  0  0  0  0
 15 16  2  0  0  0  0
 15 20  1  0  0  0  0
 16 17  1  0  0  0  0
 17 18  2  0  0  0  0
 18 19  1  0  0  0  0
 19 20  1  0  0  0  0
 21 22  2  0  0  0  0
 22 23  1  0  0  0  0
 23 24  2  0  0  0  0
 24 25  1  0  0  0  0
 25 26  2  0  0  0  0
 26 21  1  0  0  0  0
 18 21  1  0  0  0  0
 20 27  2  0  0  0  0
 10 28  1  1  0  0  0
 28 29  1  0  0  0  0
 29 30  1  0  0  0  0
 29 31  2  0  0  0  0
  5 32  1  1  0  0  0
 32 33  1  0  0  0  0
 33 34  1  0  0  0  0
 33 35  2  0  0  0  0
  1 36  1  0  0  0  0
 36 37  1  0  0  0  0
 37 38  1  0  0  0  0
 37 39  2  0  0  0  0
 14 40  1  1  0  0  0
  7 41  1  1  0  0  0
 12 42  1  1  0  0  0
 30 43  2  0  0  0  0
 43 44  1  0  0  0  0
 44 45  2  0  0  0  0
 45 46  1  0  0  0  0
 46 47  2  0  0  0  0
 47 30  1  0  0  0  0
 45 48  1  0  0  0  0
M  END
> <From>
www.bindingDB.org

> <BindingDB Reactant_set_id>
51053268

> <Ligand InChI>
InChI=1S/C36H39NO11/c1-19(38)44-18-35(4)26-16-28(47-32(42)21-8-10-23(40)11-9-21)36(5)31(34(26,3)13-12-27(35)45-20(2)39)30(41)29-25(48-36)15-24(46-33(29)43)22-7-6-14-37-17-22/h6-11,14-15,17,26-28,30-31,40-41H,12-13,16,18H2,1-5H3/t26-,27+,28+,30+,31-,34+,35+,36-/m1/s1

> <Ligand InChI Key>
PXEZNJMSWQVGOE-HRSZXCBJSA-N

> <BindingDB MonomerID>
50429578

> <BindingDB Ligand Name>
CHEMBL2334211

> <Target Name>
Sterol O-acyltransferase 2

> <Target Source Organism According to Curator or DataSource>


> <Ki (nM)>


> <IC50 (nM)>
 270

> <Kd (nM)>


> <EC50 (nM)>


> <kon (M-1-s-1)>


> <koff (s-1)>


> <pH>


> <Temp (C)>


> <Curation/DataSource>
ChEMBL

> <Article DOI>
10.1016/j.bmcl.2012.12.099

> <BindingDB Entry DOI>
10.7270/Q2P270HW

> <PMID>
23369538

> <PubChem AID>


> <Patent Number>


> <Authors>
Ohtawa, M; Yamazaki, H; Ohte, S; Matsuda, D; Ohshiro, T; Rudel, LL; Omura, S; Tomoda, H; Nagamitsu, T

> <Institution>
Kitasato University

> <Link to Ligand in BindingDB>
http://www.bindingdb.org/bind/chemsearch/marvin/MolStructure.jsp?monomerid=50429578

> <Link to Target in BindingDB>
http://www.bindingdb.org/jsp/dbsearch/PrimarySearch_ki.jsp?energyterm=kJ/mole&tag=pol&polymerid=7773&target=Sterol+O-acyltransferase+2&column=ki&startPg=0&Increment=50&submit=Search

> <Link to Ligand-Target Pair in BindingDB>
http://www.bindingdb.org/jsp/dbsearch/PrimarySearch_ki.jsp?energyterm=kJ/mole&tag=r21&monomerid=50429578&enzyme=Sterol+O-acyltransferase+2&column=ki&startPg=0&Increment=50&submit=Search

> <Ligand HET ID in PDB>


> <PDB ID(s) for Ligand-Target Complex>


> <PubChem CID>
71717002

> <PubChem SID>
164158453

> <ChEBI ID of Ligand>


> <ChEMBL ID of Ligand>
CHEMBL2334211

> <DrugBank ID of Ligand>


> <IUPHAR_GRAC ID of Ligand>


> <KEGG ID of Ligand>


> <ZINC ID of Ligand>
ZINC95587291

> <Number of Protein Chains in Target (>1 implies a multichain complex)>
1

> <BindingDB Target Chain Sequence>
MEPGGARLRLQRTEGLGGERERQPCGDGNTETHRAPDLVQWTRHMEAVKAQLLEQAQGQLRELLDRAMREAIQSYPSQDKPLPPPPPGSLSRTQEPSLGKQKVFIIRKSLLDELMEVQHFRTIYHMFIAGLCVFIISTLAIDFIDEGRLLLEFDLLIFSFGQLPLALVTWVPMFLSTLLAPYQALRLWARGTWTQATGLGCALLAAHAVVLCALPVHVAVEHQLPPASRCVLVFEQVRFLMKSYSFLREAVPGTLRARRGEGIQAPSFSSYLYFLFCPTLIYRETYPRTPYVRWNYVAKNFAQALGCVLYACFILGRLCVPVFANMSREPFSTRALVLSILHATLPGIFMLLLIFFAFLHCWLNAFAEMLRFGDRMFYRDWWNSTSFSNYYRTWNVVVHDWLYSYVYQDGLRLLGARARGVAMLGVFLVSAVAHEYIFCFVLGFFYPVMLILFLVIGGMLNFMMHDQRTGPAWNVLMWTMLFLGQGIQVSLYCQEWYARRHCPLPQATFWGLVTPRSWSCHT

> <PDB ID(s) of Target Chain>


> <UniProt (SwissProt) Recommended Name of Target Chain>
Sterol O-acyltransferase 2

> <UniProt (SwissProt) Entry Name of Target Chain>
ACAT-2

> <UniProt (SwissProt) Primary ID of Target Chain>
O75908

> <UniProt (SwissProt) Secondary ID(s) of Target Chain>
F5H7W4 I6L9H9 Q4VB99 Q4VBA1 Q96TD4 Q9UNR2

> <UniProt (SwissProt) Alternative ID(s) of Target Chain>


> <UniProt (TrEMBL) Submitted Name of Target Chain>


> <UniProt (TrEMBL) Entry Name of Target Chain>


> <UniProt (TrEMBL) Primary ID of Target Chain>


> <UniProt (TrEMBL) Secondary ID(s) of Target Chain>


> <UniProt (TrEMBL) Alternative ID(s) of Target Chain>


$$$$
00027001.cdx
  Mrv0541 06191611392D          

 33 35  0  0  0  0            999 V2000
   -3.6276    0.6187    0.0000 C   0  0  0  0  0  0  0  0  0  0  0  0
   -3.6276   -0.2062    0.0000 C   0  0  0  0  0  0  0  0  0  0  0  0
   -2.9131   -0.6187    0.0000 C   0  0  0  0  0  0  0  0  0  0  0  0
   -2.1987   -0.2062    0.0000 C   0  0  0  0  0  0  0  0  0  0  0  0
   -2.9131    1.0313    0.0000 C   0  0  0  0  0  0  0  0  0  0  0  0
   -2.9131   -1.4437    0.0000 C   0  0  0  0  0  0  0  0  0  0  0  0
   -2.1987   -1.8563    0.0000 C   0  0  0  0  0  0  0  0  0  0  0  0
   -3.6276   -1.8563    0.0000 C   0  0  0  0  0  0  0  0  0  0  0  0
   -0.6592    1.0313    0.0000 O   0  0  0  0  0  0  0  0  0  0  0  0
   -1.3737   -0.2062    0.0000 N   0  0  0  0  0  0  0  0  0  0  0  0
   -0.6592    0.2062    0.0000 C   0  0  0  0  0  0  0  0  0  0  0  0
    0.0553   -0.2062    0.0000 C   0  0  0  0  0  0  0  0  0  0  0  0
    0.7697    0.2062    0.0000 C   0  0  0  0  0  0  0  0  0  0  0  0
    1.4842   -0.2062    0.0000 C   0  0  0  0  0  0  0  0  0  0  0  0
    0.7697    1.0313    0.0000 O   0  0  0  0  0  0  0  0  0  0  0  0
    2.1987    0.2062    0.0000 C   0  0  0  0  0  0  0  0  0  0  0  0
    2.1987    1.0313    0.0000 C   0  0  0  0  0  0  0  0  0  0  0  0
    2.9131    1.4437    0.0000 C   0  0  0  0  0  0  0  0  0  0  0  0
    2.9131    2.2687    0.0000 C   0  0  0  0  0  0  0  0  0  0  0  0
    2.1987    2.6812    0.0000 C   0  0  0  0  0  0  0  0  0  0  0  0
    1.4842    2.2687    0.0000 C   0  0  0  0  0  0  0  0  0  0  0  0
    1.4842    1.4437    0.0000 C   0  0  0  0  0  0  0  0  0  0  0  0
    1.4842   -1.0313    0.0000 C   0  0  0  0  0  0  0  0  0  0  0  0
    2.1987   -1.4437    0.0000 C   0  0  0  0  0  0  0  0  0  0  0  0
    2.1987   -2.2687    0.0000 C   0  0  0  0  0  0  0  0  0  0  0  0
    2.9131   -2.6812    0.0000 C   0  0  0  0  0  0  0  0  0  0  0  0
    3.6276   -2.2687    0.0000 C   0  0  0  0  0  0  0  0  0  0  0  0
    3.6276   -1.4437    0.0000 C   0  0  0  0  0  0  0  0  0  0  0  0
    2.9131   -1.0313    0.0000 C   0  0  0  0  0  0  0  0  0  0  0  0
   -1.7862    1.3332    0.0000 C   0  0  0  0  0  0  0  0  0  0  0  0
   -0.9612    1.3332    0.0000 C   0  0  0  0  0  0  0  0  0  0  0  0
   -2.1987    0.6187    0.0000 C   0  0  0  0  0  0  0  0  0  0  0  0
   -2.1987    2.0477    0.0000 C   0  0  0  0  0  0  0  0  0  0  0  0
  1  2  4  0  0  0  0
  2  3  4  0  0  0  0
  3  4  4  0  0  0  0
  4 32  4  0  0  0  0
 32  5  4  0  0  0  0
  5  1  4  0  0  0  0
  3  6  1  0  0  0  0
  6  7  1  0  0  0  0
  6  8  1  0  0  0  0
  4 10  1  0  0  0  0
 10 11  1  0  0  0  0
 11 12  1  0  0  0  0
 11  9  2  0  0  0  0
 12 13  1  0  0  0  0
 13 14  1  0  0  0  0
 13 15  2  0  0  0  0
 14 16  1  0  0  0  0
 16 17  1  0  0  0  0
 17 18  4  0  0  0  0
 18 19  4  0  0  0  0
 19 20  4  0  0  0  0
 20 21  4  0  0  0  0
 21 22  4  0  0  0  0
 22 17  4  0  0  0  0
 14 23  1  0  0  0  0
 23 24  1  0  0  0  0
 24 25  4  0  0  0  0
 25 26  4  0  0  0  0
 26 27  4  0  0  0  0
 27 28  4  0  0  0  0
 28 29  4  0  0  0  0
 29 24  4  0  0  0  0
 30 31  1  0  0  0  0
 30 32  1  0  0  0  0
 30 33  1  0  0  0  0
M  END
> <From>
www.bindingDB.org

> <BindingDB Reactant_set_id>
330433

> <Ligand InChI>
InChI=1S/C30H35NO2/c1-21(2)26-16-11-17-27(22(3)4)30(26)31-29(33)20-28(32)25(18-23-12-7-5-8-13-23)19-24-14-9-6-10-15-24/h5-17,21-22,25H,18-20H2,1-4H3,(H,31,33)

> <Ligand InChI Key>
JXDNYIYKASSSCQ-UHFFFAOYSA-N

> <BindingDB MonomerID>
182849

> <BindingDB Ligand Name>
US9149492, Compound 1A

> <Target Name>
Sterol O-acyltransferase 2

> <Target Source Organism According to Curator or DataSource>


> <Ki (nM)>


> <IC50 (nM)>
 275

> <Kd (nM)>


> <EC50 (nM)>


> <kon (M-1-s-1)>


> <koff (s-1)>


> <pH>


> <Temp (C)>


> <Curation/DataSource>
US Patent

> <Article DOI>


> <BindingDB Entry DOI>
10.7270/Q2N015BF

> <PMID>


> <PubChem AID>
aid1801692

> <Patent Number>
US9149492

> <Authors>
Chang, T; Chang, CC; Shibuya, Y; Bryleva, E; Murphy, S; Rogers, MA

> <Institution>
Dartmouth College

> <Link to Ligand in BindingDB>
http://www.bindingdb.org/bind/chemsearch/marvin/MolStructure.jsp?monomerid=182849

> <Link to Target in BindingDB>
http://www.bindingdb.org/jsp/dbsearch/PrimarySearch_ki.jsp?energyterm=kJ/mole&tag=pol&polymerid=7773&target=Sterol+O-acyltransferase+2&column=ki&startPg=0&Increment=50&submit=Search

> <Link to Ligand-Target Pair in BindingDB>
http://www.bindingdb.org/jsp/dbsearch/PrimarySearch_ki.jsp?energyterm=kJ/mole&tag=r21&monomerid=182849&enzyme=Sterol+O-acyltransferase+2&column=ki&startPg=0&Increment=50&submit=Search

> <Ligand HET ID in PDB>


> <PDB ID(s) for Ligand-Target Complex>


> <PubChem CID>
89968519

> <PubChem SID>
313634372

> <ChEBI ID of Ligand>


> <ChEMBL ID of Ligand>


> <DrugBank ID of Ligand>


> <IUPHAR_GRAC ID of Ligand>


> <KEGG ID of Ligand>


> <ZINC ID of Ligand>


> <Number of Protein Chains in Target (>1 implies a multichain complex)>
1

> <BindingDB Target Chain Sequence>
MEPGGARLRLQRTEGLGGERERQPCGDGNTETHRAPDLVQWTRHMEAVKAQLLEQAQGQLRELLDRAMREAIQSYPSQDKPLPPPPPGSLSRTQEPSLGKQKVFIIRKSLLDELMEVQHFRTIYHMFIAGLCVFIISTLAIDFIDEGRLLLEFDLLIFSFGQLPLALVTWVPMFLSTLLAPYQALRLWARGTWTQATGLGCALLAAHAVVLCALPVHVAVEHQLPPASRCVLVFEQVRFLMKSYSFLREAVPGTLRARRGEGIQAPSFSSYLYFLFCPTLIYRETYPRTPYVRWNYVAKNFAQALGCVLYACFILGRLCVPVFANMSREPFSTRALVLSILHATLPGIFMLLLIFFAFLHCWLNAFAEMLRFGDRMFYRDWWNSTSFSNYYRTWNVVVHDWLYSYVYQDGLRLLGARARGVAMLGVFLVSAVAHEYIFCFVLGFFYPVMLILFLVIGGMLNFMMHDQRTGPAWNVLMWTMLFLGQGIQVSLYCQEWYARRHCPLPQATFWGLVTPRSWSCHT

> <PDB ID(s) of Target Chain>


> <UniProt (SwissProt) Recommended Name of Target Chain>
Sterol O-acyltransferase 2

> <UniProt (SwissProt) Entry Name of Target Chain>
ACAT-2

> <UniProt (SwissProt) Primary ID of Target Chain>
O75908

> <UniProt (SwissProt) Secondary ID(s) of Target Chain>
F5H7W4 I6L9H9 Q4VB99 Q4VBA1 Q96TD4 Q9UNR2

> <UniProt (SwissProt) Alternative ID(s) of Target Chain>


> <UniProt (TrEMBL) Submitted Name of Target Chain>


> <UniProt (TrEMBL) Entry Name of Target Chain>


> <UniProt (TrEMBL) Primary ID of Target Chain>


> <UniProt (TrEMBL) Secondary ID(s) of Target Chain>


> <UniProt (TrEMBL) Alternative ID(s) of Target Chain>


$$$$

  Mrv0541 11241417102D          

 49 54  0  0  0  0            999 V2000
   30.8841   -7.0835    0.0000 C   0  0  0  0  0  0  0  0  0  0  0  0
   30.4758   -6.3710    0.0000 C   0  0  2  0  0  0  0  0  0  0  0  0
   30.0629   -7.0809    0.0000 C   0  0  0  0  0  0  0  0  0  0  0  0
   29.7674   -5.1377    0.0000 C   0  0  0  0  0  0  0  0  0  0  0  0
   29.7674   -5.9627    0.0000 C   0  0  2  0  0  0  0  0  0  0  0  0
   30.4794   -4.7210    0.0000 C   0  0  0  0  0  0  0  0  0  0  0  0
   31.1915   -5.1377    0.0000 C   0  0  1  0  0  0  0  0  0  0  0  0
   31.1925   -5.9627    0.0000 C   0  0  1  0  0  0  0  0  0  0  0  0
   31.9035   -6.3720    0.0000 C   0  0  0  0  0  0  0  0  0  0  0  0
   32.6181   -5.9609    0.0000 C   0  0  1  0  0  0  0  0  0  0  0  0
   31.9015   -4.7219    0.0000 C   0  0  2  0  0  0  0  0  0  0  0  0
   32.6167   -5.1404    0.0000 C   0  0  2  0  0  0  0  0  0  0  0  0
   33.3328   -4.7325    0.0000 O   0  0  0  0  0  0  0  0  0  0  0  0
   31.9023   -3.8956    0.0000 C   0  0  2  0  0  0  0  0  0  0  0  0
   32.6247   -3.4860    0.0000 C   0  0  0  0  0  0  0  0  0  0  0  0
   33.3428   -3.9082    0.0000 C   0  0  0  0  0  0  0  0  0  0  0  0
   34.0634   -3.4996    0.0000 C   0  0  0  0  0  0  0  0  0  0  0  0
   34.0723   -2.6673    0.0000 C   0  0  0  0  0  0  0  0  0  0  0  0
   33.3542   -2.2451    0.0000 O   0  0  0  0  0  0  0  0  0  0  0  0
   32.6272   -2.6553    0.0000 C   0  0  0  0  0  0  0  0  0  0  0  0
   34.7861   -2.2630    0.0000 C   0  0  0  0  0  0  0  0  0  0  0  0
   35.4970   -2.6839    0.0000 C   0  0  0  0  0  0  0  0  0  0  0  0
   36.2147   -2.2786    0.0000 N   0  0  0  0  0  0  0  0  0  0  0  0
   36.2229   -1.4528    0.0000 C   0  0  0  0  0  0  0  0  0  0  0  0
   35.5072   -1.0338    0.0000 C   0  0  0  0  0  0  0  0  0  0  0  0
   34.7923   -1.4414    0.0000 C   0  0  0  0  0  0  0  0  0  0  0  0
   31.9154   -2.2381    0.0000 O   0  0  0  0  0  0  0  0  0  0  0  0
   33.3327   -6.3733    0.0000 O   0  0  0  0  0  0  0  0  0  0  0  0
   34.0471   -5.9607    0.0000 C   0  0  0  0  0  0  0  0  0  0  0  0
   34.7617   -6.3731    0.0000 C   0  0  0  0  0  0  0  0  0  0  0  0
   34.0470   -5.1356    0.0000 O   0  0  0  0  0  0  0  0  0  0  0  0
   29.0535   -6.3762    0.0000 O   0  0  0  0  0  0  0  0  0  0  0  0
   28.3384   -5.9647    0.0000 C   0  0  0  0  0  0  0  0  0  0  0  0
   27.6245   -6.3782    0.0000 C   0  0  0  0  0  0  0  0  0  0  0  0
   28.3372   -5.1397    0.0000 O   0  0  0  0  0  0  0  0  0  0  0  0
   30.4693   -7.7967    0.0000 O   0  0  0  0  0  0  0  0  0  0  0  0
   30.8795   -8.5125    0.0000 C   0  0  0  0  0  0  0  0  0  0  0  0
   30.4647   -9.2256    0.0000 C   0  0  0  0  0  0  0  0  0  0  0  0
   31.7045   -8.5151    0.0000 O   0  0  0  0  0  0  0  0  0  0  0  0
   31.1897   -3.4799    0.0000 O   0  0  0  0  0  0  0  0  0  0  0  0
   31.1841   -4.3126    0.0000 C   0  0  0  0  0  0  0  0  0  0  0  0
   32.6091   -4.3126    0.0000 C   0  0  0  0  0  0  0  0  0  0  0  0
   34.7565   -7.1971    0.0000 C   0  0  0  0  0  0  0  0  0  0  0  0
   35.4702   -7.6094    0.0000 C   0  0  0  0  0  0  0  0  0  0  0  0
   36.1857   -7.1968    0.0000 C   0  0  0  0  0  0  0  0  0  0  0  0
   36.1828   -6.3675    0.0000 C   0  0  0  0  0  0  0  0  0  0  0  0
   35.4686   -5.9588    0.0000 C   0  0  0  0  0  0  0  0  0  0  0  0
   35.4638   -5.1349    0.0000 C   0  0  0  0  0  0  0  0  0  0  0  0
   35.4596   -4.3099    0.0000 N   0  0  0  0  0  0  0  0  0  0  0  0
  2  1  1  6  0  0  0
  2  3  1  1  0  0  0
  5  4  1  0  0  0  0
  4  6  1  0  0  0  0
  2  5  1  0  0  0  0
  8  2  1  0  0  0  0
  7  6  1  0  0  0  0
  7  8  1  0  0  0  0
 11  7  1  1  0  0  0
  8  9  1  1  0  0  0
 10  9  1  0  0  0  0
 12 10  1  0  0  0  0
 11 12  1  0  0  0  0
 11 14  1  0  0  0  0
 12 13  1  0  0  0  0
 13 16  1  0  0  0  0
 14 15  1  0  0  0  0
 15 16  2  0  0  0  0
 15 20  1  0  0  0  0
 16 17  1  0  0  0  0
 17 18  2  0  0  0  0
 18 19  1  0  0  0  0
 19 20  1  0  0  0  0
 21 22  2  0  0  0  0
 22 23  1  0  0  0  0
 23 24  2  0  0  0  0
 24 25  1  0  0  0  0
 25 26  2  0  0  0  0
 26 21  1  0  0  0  0
 18 21  1  0  0  0  0
 20 27  2  0  0  0  0
 10 28  1  1  0  0  0
 28 29  1  0  0  0  0
 29 30  1  0  0  0  0
 29 31  2  0  0  0  0
  5 32  1  1  0  0  0
 32 33  1  0  0  0  0
 33 34  1  0  0  0  0
 33 35  2  0  0  0  0
  1 36  1  0  0  0  0
 36 37  1  0  0  0  0
 37 38  1  0  0  0  0
 37 39  2  0  0  0  0
 14 40  1  1  0  0  0
  7 41  1  1  0  0  0
 12 42  1  1  0  0  0
 30 43  2  0  0  0  0
 43 44  1  0  0  0  0
 44 45  2  0  0  0  0
 45 46  1  0  0  0  0
 46 47  2  0  0  0  0
 47 30  1  0  0  0  0
 48 49  3  0  0  0  0
 47 48  1  0  0  0  0
M  END
> <From>
www.bindingDB.org

> <BindingDB Reactant_set_id>
51053269

> <Ligand InChI>
InChI=1S/C37H38N2O10/c1-20(40)45-19-36(4)27-16-29(48-33(43)24-11-7-6-9-22(24)17-38)37(5)32(35(27,3)13-12-28(36)46-21(2)41)31(42)30-26(49-37)15-25(47-34(30)44)23-10-8-14-39-18-23/h6-11,14-15,18,27-29,31-32,42H,12-13,16,19H2,1-5H3/t27-,28+,29+,31+,32-,35+,36+,37-/m1/s1

> <Ligand InChI Key>
XIOQUXRPNPEMHS-ZRPSWOMSSA-N

> <BindingDB MonomerID>
50429579

> <BindingDB Ligand Name>
CHEMBL2334210

> <Target Name>
Sterol O-acyltransferase 2

> <Target Source Organism According to Curator or DataSource>


> <Ki (nM)>


> <IC50 (nM)>
 290

> <Kd (nM)>


> <EC50 (nM)>


> <kon (M-1-s-1)>


> <koff (s-1)>


> <pH>


> <Temp (C)>


> <Curation/DataSource>
ChEMBL

> <Article DOI>
10.1016/j.bmcl.2012.12.099

> <BindingDB Entry DOI>
10.7270/Q2P270HW

> <PMID>
23369538

> <PubChem AID>


> <Patent Number>


> <Authors>
Ohtawa, M; Yamazaki, H; Ohte, S; Matsuda, D; Ohshiro, T; Rudel, LL; Omura, S; Tomoda, H; Nagamitsu, T

> <Institution>
Kitasato University

> <Link to Ligand in BindingDB>
http://www.bindingdb.org/bind/chemsearch/marvin/MolStructure.jsp?monomerid=50429579

> <Link to Target in BindingDB>
http://www.bindingdb.org/jsp/dbsearch/PrimarySearch_ki.jsp?energyterm=kJ/mole&tag=pol&polymerid=7773&target=Sterol+O-acyltransferase+2&column=ki&startPg=0&Increment=50&submit=Search

> <Link to Ligand-Target Pair in BindingDB>
http://www.bindingdb.org/jsp/dbsearch/PrimarySearch_ki.jsp?energyterm=kJ/mole&tag=r21&monomerid=50429579&enzyme=Sterol+O-acyltransferase+2&column=ki&startPg=0&Increment=50&submit=Search

> <Ligand HET ID in PDB>


> <PDB ID(s) for Ligand-Target Complex>


> <PubChem CID>
71559437

> <PubChem SID>
164158454

> <ChEBI ID of Ligand>


> <ChEMBL ID of Ligand>
CHEMBL2334210

> <DrugBank ID of Ligand>


> <IUPHAR_GRAC ID of Ligand>


> <KEGG ID of Ligand>


> <ZINC ID of Ligand>
ZINC95587511

> <Number of Protein Chains in Target (>1 implies a multichain complex)>
1

> <BindingDB Target Chain Sequence>
MEPGGARLRLQRTEGLGGERERQPCGDGNTETHRAPDLVQWTRHMEAVKAQLLEQAQGQLRELLDRAMREAIQSYPSQDKPLPPPPPGSLSRTQEPSLGKQKVFIIRKSLLDELMEVQHFRTIYHMFIAGLCVFIISTLAIDFIDEGRLLLEFDLLIFSFGQLPLALVTWVPMFLSTLLAPYQALRLWARGTWTQATGLGCALLAAHAVVLCALPVHVAVEHQLPPASRCVLVFEQVRFLMKSYSFLREAVPGTLRARRGEGIQAPSFSSYLYFLFCPTLIYRETYPRTPYVRWNYVAKNFAQALGCVLYACFILGRLCVPVFANMSREPFSTRALVLSILHATLPGIFMLLLIFFAFLHCWLNAFAEMLRFGDRMFYRDWWNSTSFSNYYRTWNVVVHDWLYSYVYQDGLRLLGARARGVAMLGVFLVSAVAHEYIFCFVLGFFYPVMLILFLVIGGMLNFMMHDQRTGPAWNVLMWTMLFLGQGIQVSLYCQEWYARRHCPLPQATFWGLVTPRSWSCHT

> <PDB ID(s) of Target Chain>


> <UniProt (SwissProt) Recommended Name of Target Chain>
Sterol O-acyltransferase 2

> <UniProt (SwissProt) Entry Name of Target Chain>
ACAT-2

> <UniProt (SwissProt) Primary ID of Target Chain>
O75908

> <UniProt (SwissProt) Secondary ID(s) of Target Chain>
F5H7W4 I6L9H9 Q4VB99 Q4VBA1 Q96TD4 Q9UNR2

> <UniProt (SwissProt) Alternative ID(s) of Target Chain>


> <UniProt (TrEMBL) Submitted Name of Target Chain>


> <UniProt (TrEMBL) Entry Name of Target Chain>


> <UniProt (TrEMBL) Primary ID of Target Chain>


> <UniProt (TrEMBL) Secondary ID(s) of Target Chain>


> <UniProt (TrEMBL) Alternative ID(s) of Target Chain>


$$$$

  Mrv0541 11241418062D          

 50 57  0  0  0  0            999 V2000
    2.4775  -11.7783    0.0000 C   0  0  0  0  0  0  0  0  0  0  0  0
    3.1902  -11.3613    0.0000 C   0  0  0  0  0  0  0  0  0  0  0  0
    3.9029  -11.7783    0.0000 C   0  0  1  0  0  0  0  0  0  0  0  0
    3.9040  -12.6041    0.0000 C   0  0  1  0  0  0  0  0  0  0  0  0
    4.6157  -13.0138    0.0000 C   0  0  0  0  0  0  0  0  0  0  0  0
    5.3310  -12.6023    0.0000 C   0  0  1  0  0  0  0  0  0  0  0  0
    4.6136  -11.3622    0.0000 C   0  0  2  0  0  0  0  0  0  0  0  0
    5.3256  -11.7788    0.0000 C   0  0  2  0  0  0  0  0  0  0  0  0
    6.0384  -11.3727    0.0000 O   0  0  0  0  0  0  0  0  0  0  0  0
    4.6144  -10.5396    0.0000 C   0  0  2  0  0  0  0  0  0  0  0  0
    3.1902  -13.0129    0.0000 C   0  0  1  0  0  0  0  0  0  0  0  0
    2.4775  -12.6041    0.0000 C   0  0  1  0  0  0  0  0  0  0  0  0
    1.7710  -13.0147    0.0000 O   0  0  0  0  0  0  0  0  0  0  0  0
    1.7711  -13.8357    0.0000 C   0  0  1  0  0  0  0  0  0  0  0  0
    2.4838  -14.2445    0.0000 O   0  0  0  0  0  0  0  0  0  0  0  0
    3.1965  -13.8322    0.0000 C   0  0  0  0  0  0  0  0  0  0  0  0
    5.3334  -10.1319    0.0000 C   0  0  0  0  0  0  0  0  0  0  0  0
    6.0438  -10.5500    0.0000 C   0  0  0  0  0  0  0  0  0  0  0  0
    6.7572  -10.1461    0.0000 C   0  0  0  0  0  0  0  0  0  0  0  0
    6.7664   -9.3224    0.0000 C   0  0  0  0  0  0  0  0  0  0  0  0
    6.0559   -8.9043    0.0000 O   0  0  0  0  0  0  0  0  0  0  0  0
    5.3363   -9.3098    0.0000 C   0  0  0  0  0  0  0  0  0  0  0  0
    4.6241   -8.8920    0.0000 O   0  0  0  0  0  0  0  0  0  0  0  0
    3.9010  -10.1235    0.0000 O   0  0  0  0  0  0  0  0  0  0  0  0
    5.3177  -10.9525    0.0000 C   0  0  0  0  0  0  0  0  0  0  0  0
    6.0472  -13.0134    0.0000 O   0  0  0  0  0  0  0  0  0  0  0  0
    3.8955  -10.9525    0.0000 C   0  0  0  0  0  0  0  0  0  0  0  0
    3.1823  -12.1871    0.0000 C   0  0  0  0  0  0  0  0  0  0  0  0
    6.7613  -12.5987    0.0000 C   0  0  0  0  0  0  0  0  0  0  0  0
    7.4775  -13.0098    0.0000 C   0  0  0  0  0  0  0  0  0  0  0  0
    6.7592  -11.7729    0.0000 O   0  0  0  0  0  0  0  0  0  0  0  0
    7.4775  -13.8356    0.0000 C   0  0  0  0  0  0  0  0  0  0  0  0
    8.1929  -14.2466    0.0000 C   0  0  0  0  0  0  0  0  0  0  0  0
    8.9080  -13.8319    0.0000 C   0  0  0  0  0  0  0  0  0  0  0  0
    8.9033  -13.0018    0.0000 C   0  0  0  0  0  0  0  0  0  0  0  0
    8.1873  -12.5944    0.0000 C   0  0  0  0  0  0  0  0  0  0  0  0
    7.4859   -8.9171    0.0000 C   0  0  0  0  0  0  0  0  0  0  0  0
    8.1973   -9.3387    0.0000 C   0  0  0  0  0  0  0  0  0  0  0  0
    8.9159   -8.9335    0.0000 N   0  0  0  0  0  0  0  0  0  0  0  0
    8.9245   -8.1069    0.0000 C   0  0  0  0  0  0  0  0  0  0  0  0
    8.2083   -7.6871    0.0000 C   0  0  0  0  0  0  0  0  0  0  0  0
    7.4925   -8.0947    0.0000 C   0  0  0  0  0  0  0  0  0  0  0  0
    8.1791  -11.7724    0.0000 C   0  0  0  0  0  0  0  0  0  0  0  0
    8.1741  -10.9466    0.0000 N   0  0  0  0  0  0  0  0  0  0  0  0
    1.0566  -14.2497    0.0000 C   0  0  0  0  0  0  0  0  0  0  0  0
    0.3419  -13.8385    0.0000 C   0  0  0  0  0  0  0  0  0  0  0  0
   -0.3722  -14.2517    0.0000 C   0  0  0  0  0  0  0  0  0  0  0  0
   -0.3714  -15.0785    0.0000 C   0  0  0  0  0  0  0  0  0  0  0  0
    0.3494  -15.4902    0.0000 C   0  0  0  0  0  0  0  0  0  0  0  0
    1.0606  -15.0744    0.0000 C   0  0  0  0  0  0  0  0  0  0  0  0
 12  1  1  0  0  0  0
  1  2  1  0  0  0  0
  4 11  1  0  0  0  0
  3  2  1  0  0  0  0
  3  4  1  0  0  0  0
  7  3  1  1  0  0  0
  4  5  1  1  0  0  0
  6  5  1  0  0  0  0
  8  6  1  0  0  0  0
  7  8  1  0  0  0  0
  7 10  1  0  0  0  0
  8  9  1  0  0  0  0
  9 18  1  0  0  0  0
 10 17  1  0  0  0  0
 11 12  1  0  0  0  0
 11 16  1  0  0  0  0
 12 13  1  1  0  0  0
 14 13  1  0  0  0  0
 14 15  1  0  0  0  0
 15 16  1  0  0  0  0
 17 18  2  0  0  0  0
 17 22  1  0  0  0  0
 18 19  1  0  0  0  0
 19 20  2  0  0  0  0
 20 21  1  0  0  0  0
 21 22  1  0  0  0  0
 22 23  2  0  0  0  0
 10 24  1  1  0  0  0
  8 25  1  1  0  0  0
  6 26  1  1  0  0  0
  3 27  1  1  0  0  0
 11 28  1  1  0  0  0
 26 29  1  0  0  0  0
 29 30  1  0  0  0  0
 29 31  2  0  0  0  0
 30 32  2  0  0  0  0
 32 33  1  0  0  0  0
 33 34  2  0  0  0  0
 34 35  1  0  0  0  0
 35 36  2  0  0  0  0
 36 30  1  0  0  0  0
 37 38  2  0  0  0  0
 38 39  1  0  0  0  0
 39 40  2  0  0  0  0
 40 41  1  0  0  0  0
 41 42  2  0  0  0  0
 42 37  1  0  0  0  0
 20 37  1  0  0  0  0
 43 44  3  0  0  0  0
 36 43  1  0  0  0  0
 14 45  1  1  0  0  0
 45 46  2  0  0  0  0
 46 47  1  0  0  0  0
 47 48  2  0  0  0  0
 48 49  1  0  0  0  0
 49 50  2  0  0  0  0
 50 45  1  0  0  0  0
M  END
> <From>
www.bindingDB.org

> <BindingDB Reactant_set_id>
51068416

> <Ligand InChI>
InChI=1S/C40H38N2O8/c1-38-16-15-30-39(2,22-46-37(49-30)23-10-5-4-6-11-23)29(38)19-31(48-35(44)26-14-8-7-12-24(26)20-41)40(3)34(38)33(43)32-28(50-40)18-27(47-36(32)45)25-13-9-17-42-21-25/h4-14,17-18,21,29-31,33-34,37,43H,15-16,19,22H2,1-3H3/t29-,30+,31+,33+,34-,37-,38+,39+,40-/m1/s1

> <Ligand InChI Key>
JCCDSNDRPCCQED-WVGFPPCDSA-N

> <BindingDB MonomerID>
50436330

> <BindingDB Ligand Name>
CHEMBL2398802

> <Target Name>
Sterol O-acyltransferase 2

> <Target Source Organism According to Curator or DataSource>


> <Ki (nM)>


> <IC50 (nM)>
 320

> <Kd (nM)>


> <EC50 (nM)>


> <kon (M-1-s-1)>


> <koff (s-1)>


> <pH>


> <Temp (C)>


> <Curation/DataSource>
ChEMBL

> <Article DOI>
10.1016/j.bmcl.2013.04.075

> <BindingDB Entry DOI>
10.7270/Q2WD41Z9

> <PMID>
23711919

> <PubChem AID>


> <Patent Number>


> <Authors>
Ohtawa, M; Yamazaki, H; Ohte, S; Matsuda, D; Ohshiro, T; Rudel, LL; Omura, S; Tomoda, H; Nagamitsu, T

> <Institution>
Kitasato University

> <Link to Ligand in BindingDB>
http://www.bindingdb.org/bind/chemsearch/marvin/MolStructure.jsp?monomerid=50436330

> <Link to Target in BindingDB>
http://www.bindingdb.org/jsp/dbsearch/PrimarySearch_ki.jsp?energyterm=kJ/mole&tag=pol&polymerid=7773&target=Sterol+O-acyltransferase+2&column=ki&startPg=0&Increment=50&submit=Search

> <Link to Ligand-Target Pair in BindingDB>
http://www.bindingdb.org/jsp/dbsearch/PrimarySearch_ki.jsp?energyterm=kJ/mole&tag=r21&monomerid=50436330&enzyme=Sterol+O-acyltransferase+2&column=ki&startPg=0&Increment=50&submit=Search

> <Ligand HET ID in PDB>


> <PDB ID(s) for Ligand-Target Complex>


> <PubChem CID>
71682656

> <PubChem SID>
175448647

> <ChEBI ID of Ligand>


> <ChEMBL ID of Ligand>
CHEMBL2398802

> <DrugBank ID of Ligand>


> <IUPHAR_GRAC ID of Ligand>


> <KEGG ID of Ligand>


> <ZINC ID of Ligand>
ZINC96272243

> <Number of Protein Chains in Target (>1 implies a multichain complex)>
1

> <BindingDB Target Chain Sequence>
MEPGGARLRLQRTEGLGGERERQPCGDGNTETHRAPDLVQWTRHMEAVKAQLLEQAQGQLRELLDRAMREAIQSYPSQDKPLPPPPPGSLSRTQEPSLGKQKVFIIRKSLLDELMEVQHFRTIYHMFIAGLCVFIISTLAIDFIDEGRLLLEFDLLIFSFGQLPLALVTWVPMFLSTLLAPYQALRLWARGTWTQATGLGCALLAAHAVVLCALPVHVAVEHQLPPASRCVLVFEQVRFLMKSYSFLREAVPGTLRARRGEGIQAPSFSSYLYFLFCPTLIYRETYPRTPYVRWNYVAKNFAQALGCVLYACFILGRLCVPVFANMSREPFSTRALVLSILHATLPGIFMLLLIFFAFLHCWLNAFAEMLRFGDRMFYRDWWNSTSFSNYYRTWNVVVHDWLYSYVYQDGLRLLGARARGVAMLGVFLVSAVAHEYIFCFVLGFFYPVMLILFLVIGGMLNFMMHDQRTGPAWNVLMWTMLFLGQGIQVSLYCQEWYARRHCPLPQATFWGLVTPRSWSCHT

> <PDB ID(s) of Target Chain>


> <UniProt (SwissProt) Recommended Name of Target Chain>
Sterol O-acyltransferase 2

> <UniProt (SwissProt) Entry Name of Target Chain>
ACAT-2

> <UniProt (SwissProt) Primary ID of Target Chain>
O75908

> <UniProt (SwissProt) Secondary ID(s) of Target Chain>
F5H7W4 I6L9H9 Q4VB99 Q4VBA1 Q96TD4 Q9UNR2

> <UniProt (SwissProt) Alternative ID(s) of Target Chain>


> <UniProt (TrEMBL) Submitted Name of Target Chain>


> <UniProt (TrEMBL) Entry Name of Target Chain>


> <UniProt (TrEMBL) Primary ID of Target Chain>


> <UniProt (TrEMBL) Secondary ID(s) of Target Chain>


> <UniProt (TrEMBL) Alternative ID(s) of Target Chain>


$$$$

  Mrv0541 11241418062D          

 50 57  0  0  0  0            999 V2000
    9.9720  -11.5360    0.0000 C   0  0  0  0  0  0  0  0  0  0  0  0
   10.6847  -11.1190    0.0000 C   0  0  0  0  0  0  0  0  0  0  0  0
   11.3975  -11.5360    0.0000 C   0  0  1  0  0  0  0  0  0  0  0  0
   11.3985  -12.3618    0.0000 C   0  0  1  0  0  0  0  0  0  0  0  0
   12.1102  -12.7715    0.0000 C   0  0  0  0  0  0  0  0  0  0  0  0
   12.8254  -12.3600    0.0000 C   0  0  1  0  0  0  0  0  0  0  0  0
   12.1081  -11.1200    0.0000 C   0  0  2  0  0  0  0  0  0  0  0  0
   12.8201  -11.5365    0.0000 C   0  0  2  0  0  0  0  0  0  0  0  0
   13.5329  -11.1305    0.0000 O   0  0  0  0  0  0  0  0  0  0  0  0
   12.1089  -10.2973    0.0000 C   0  0  2  0  0  0  0  0  0  0  0  0
   10.6847  -12.7705    0.0000 C   0  0  1  0  0  0  0  0  0  0  0  0
    9.9720  -12.3618    0.0000 C   0  0  1  0  0  0  0  0  0  0  0  0
    9.2657  -12.7724    0.0000 O   0  0  0  0  0  0  0  0  0  0  0  0
    9.2658  -13.5933    0.0000 C   0  0  1  0  0  0  0  0  0  0  0  0
    9.9785  -14.0021    0.0000 O   0  0  0  0  0  0  0  0  0  0  0  0
   10.6910  -13.5898    0.0000 C   0  0  0  0  0  0  0  0  0  0  0  0
   12.8279   -9.8897    0.0000 C   0  0  0  0  0  0  0  0  0  0  0  0
   13.5383  -10.3077    0.0000 C   0  0  0  0  0  0  0  0  0  0  0  0
   14.2517   -9.9038    0.0000 C   0  0  0  0  0  0  0  0  0  0  0  0
   14.2608   -9.0801    0.0000 C   0  0  0  0  0  0  0  0  0  0  0  0
   13.5504   -8.6621    0.0000 O   0  0  0  0  0  0  0  0  0  0  0  0
   12.8309   -9.0676    0.0000 C   0  0  0  0  0  0  0  0  0  0  0  0
   12.1186   -8.6497    0.0000 O   0  0  0  0  0  0  0  0  0  0  0  0
   11.3955   -9.8813    0.0000 O   0  0  0  0  0  0  0  0  0  0  0  0
   12.8122  -10.7102    0.0000 C   0  0  0  0  0  0  0  0  0  0  0  0
   13.5416  -12.7711    0.0000 O   0  0  0  0  0  0  0  0  0  0  0  0
   11.3901  -10.7102    0.0000 C   0  0  0  0  0  0  0  0  0  0  0  0
   10.6769  -11.9448    0.0000 C   0  0  0  0  0  0  0  0  0  0  0  0
   14.2557  -12.3563    0.0000 C   0  0  0  0  0  0  0  0  0  0  0  0
   14.9720  -12.7675    0.0000 C   0  0  0  0  0  0  0  0  0  0  0  0
   14.2537  -11.5305    0.0000 O   0  0  0  0  0  0  0  0  0  0  0  0
   14.9720  -13.5932    0.0000 C   0  0  0  0  0  0  0  0  0  0  0  0
   15.6873  -14.0042    0.0000 C   0  0  0  0  0  0  0  0  0  0  0  0
   16.4024  -13.5895    0.0000 C   0  0  0  0  0  0  0  0  0  0  0  0
   16.3976  -12.7594    0.0000 C   0  0  0  0  0  0  0  0  0  0  0  0
   15.6817  -12.3522    0.0000 C   0  0  0  0  0  0  0  0  0  0  0  0
   14.9803   -8.6749    0.0000 C   0  0  0  0  0  0  0  0  0  0  0  0
   15.6917   -9.0965    0.0000 C   0  0  0  0  0  0  0  0  0  0  0  0
   16.4103   -8.6913    0.0000 N   0  0  0  0  0  0  0  0  0  0  0  0
   16.4188   -7.8647    0.0000 C   0  0  0  0  0  0  0  0  0  0  0  0
   15.7027   -7.4449    0.0000 C   0  0  0  0  0  0  0  0  0  0  0  0
   14.9869   -7.8525    0.0000 C   0  0  0  0  0  0  0  0  0  0  0  0
   15.6767  -11.5264    0.0000 O   0  0  0  0  0  0  0  0  0  0  0  0
   16.3893  -11.1092    0.0000 C   0  0  0  0  0  0  0  0  0  0  0  0
    8.5519  -14.0069    0.0000 C   0  0  0  0  0  0  0  0  0  0  0  0
    7.8375  -13.5943    0.0000 C   0  0  0  0  0  0  0  0  0  0  0  0
    7.1230  -14.0069    0.0000 C   0  0  0  0  0  0  0  0  0  0  0  0
    7.1230  -14.8319    0.0000 C   0  0  0  0  0  0  0  0  0  0  0  0
    7.8375  -15.2444    0.0000 C   0  0  0  0  0  0  0  0  0  0  0  0
    8.5519  -14.8319    0.0000 C   0  0  0  0  0  0  0  0  0  0  0  0
 12  1  1  0  0  0  0
  1  2  1  0  0  0  0
  4 11  1  0  0  0  0
  3  2  1  0  0  0  0
  3  4  1  0  0  0  0
  7  3  1  1  0  0  0
  4  5  1  1  0  0  0
  6  5  1  0  0  0  0
  8  6  1  0  0  0  0
  7  8  1  0  0  0  0
  7 10  1  0  0  0  0
  8  9  1  0  0  0  0
  9 18  1  0  0  0  0
 10 17  1  0  0  0  0
 11 12  1  0  0  0  0
 11 16  1  0  0  0  0
 12 13  1  1  0  0  0
 14 13  1  0  0  0  0
 14 15  1  0  0  0  0
 15 16  1  0  0  0  0
 17 18  2  0  0  0  0
 17 22  1  0  0  0  0
 18 19  1  0  0  0  0
 19 20  2  0  0  0  0
 20 21  1  0  0  0  0
 21 22  1  0  0  0  0
 22 23  2  0  0  0  0
 10 24  1  1  0  0  0
  8 25  1  1  0  0  0
  6 26  1  1  0  0  0
  3 27  1  1  0  0  0
 11 28  1  1  0  0  0
 26 29  1  0  0  0  0
 29 30  1  0  0  0  0
 29 31  2  0  0  0  0
 30 32  2  0  0  0  0
 32 33  1  0  0  0  0
 33 34  2  0  0  0  0
 34 35  1  0  0  0  0
 35 36  2  0  0  0  0
 36 30  1  0  0  0  0
 37 38  2  0  0  0  0
 38 39  1  0  0  0  0
 39 40  2  0  0  0  0
 40 41  1  0  0  0  0
 41 42  2  0  0  0  0
 42 37  1  0  0  0  0
 20 37  1  0  0  0  0
 36 43  1  0  0  0  0
 43 44  1  0  0  0  0
 14 45  1  1  0  0  0
 50 45  2  0  0  0  0
 46 45  1  0  0  0  0
 46 47  2  0  0  0  0
 47 48  1  0  0  0  0
 48 49  2  0  0  0  0
 49 50  1  0  0  0  0
M  END
> <From>
www.bindingDB.org

> <BindingDB Reactant_set_id>
51068415

> <Ligand InChI>
InChI=1S/C40H41NO9/c1-38-17-16-30-39(2,22-46-37(49-30)23-11-6-5-7-12-23)29(38)20-31(48-35(43)25-14-8-9-15-26(25)45-4)40(3)34(38)33(42)32-28(50-40)19-27(47-36(32)44)24-13-10-18-41-21-24/h5-15,18-19,21,29-31,33-34,37,42H,16-17,20,22H2,1-4H3/t29-,30+,31+,33+,34-,37-,38+,39+,40-/m1/s1

> <Ligand InChI Key>
BHPXRTDREZBALB-WVGFPPCDSA-N

> <BindingDB MonomerID>
50436329

> <BindingDB Ligand Name>
CHEMBL2398803

> <Target Name>
Sterol O-acyltransferase 2

> <Target Source Organism According to Curator or DataSource>


> <Ki (nM)>


> <IC50 (nM)>
 320

> <Kd (nM)>


> <EC50 (nM)>


> <kon (M-1-s-1)>


> <koff (s-1)>


> <pH>


> <Temp (C)>


> <Curation/DataSource>
ChEMBL

> <Article DOI>
10.1016/j.bmcl.2013.04.075

> <BindingDB Entry DOI>
10.7270/Q2WD41Z9

> <PMID>
23711919

> <PubChem AID>


> <Patent Number>


> <Authors>
Ohtawa, M; Yamazaki, H; Ohte, S; Matsuda, D; Ohshiro, T; Rudel, LL; Omura, S; Tomoda, H; Nagamitsu, T

> <Institution>
Kitasato University

> <Link to Ligand in BindingDB>
http://www.bindingdb.org/bind/chemsearch/marvin/MolStructure.jsp?monomerid=50436329

> <Link to Target in BindingDB>
http://www.bindingdb.org/jsp/dbsearch/PrimarySearch_ki.jsp?energyterm=kJ/mole&tag=pol&polymerid=7773&target=Sterol+O-acyltransferase+2&column=ki&startPg=0&Increment=50&submit=Search

> <Link to Ligand-Target Pair in BindingDB>
http://www.bindingdb.org/jsp/dbsearch/PrimarySearch_ki.jsp?energyterm=kJ/mole&tag=r21&monomerid=50436329&enzyme=Sterol+O-acyltransferase+2&column=ki&startPg=0&Increment=50&submit=Search

> <Ligand HET ID in PDB>


> <PDB ID(s) for Ligand-Target Complex>


> <PubChem CID>
71682657

> <PubChem SID>
175448646

> <ChEBI ID of Ligand>


> <ChEMBL ID of Ligand>
CHEMBL2398803

> <DrugBank ID of Ligand>


> <IUPHAR_GRAC ID of Ligand>


> <KEGG ID of Ligand>


> <ZINC ID of Ligand>
ZINC96272242

> <Number of Protein Chains in Target (>1 implies a multichain complex)>
1

> <BindingDB Target Chain Sequence>
MEPGGARLRLQRTEGLGGERERQPCGDGNTETHRAPDLVQWTRHMEAVKAQLLEQAQGQLRELLDRAMREAIQSYPSQDKPLPPPPPGSLSRTQEPSLGKQKVFIIRKSLLDELMEVQHFRTIYHMFIAGLCVFIISTLAIDFIDEGRLLLEFDLLIFSFGQLPLALVTWVPMFLSTLLAPYQALRLWARGTWTQATGLGCALLAAHAVVLCALPVHVAVEHQLPPASRCVLVFEQVRFLMKSYSFLREAVPGTLRARRGEGIQAPSFSSYLYFLFCPTLIYRETYPRTPYVRWNYVAKNFAQALGCVLYACFILGRLCVPVFANMSREPFSTRALVLSILHATLPGIFMLLLIFFAFLHCWLNAFAEMLRFGDRMFYRDWWNSTSFSNYYRTWNVVVHDWLYSYVYQDGLRLLGARARGVAMLGVFLVSAVAHEYIFCFVLGFFYPVMLILFLVIGGMLNFMMHDQRTGPAWNVLMWTMLFLGQGIQVSLYCQEWYARRHCPLPQATFWGLVTPRSWSCHT

> <PDB ID(s) of Target Chain>


> <UniProt (SwissProt) Recommended Name of Target Chain>
Sterol O-acyltransferase 2

> <UniProt (SwissProt) Entry Name of Target Chain>
ACAT-2

> <UniProt (SwissProt) Primary ID of Target Chain>
O75908

> <UniProt (SwissProt) Secondary ID(s) of Target Chain>
F5H7W4 I6L9H9 Q4VB99 Q4VBA1 Q96TD4 Q9UNR2

> <UniProt (SwissProt) Alternative ID(s) of Target Chain>


> <UniProt (TrEMBL) Submitted Name of Target Chain>


> <UniProt (TrEMBL) Entry Name of Target Chain>


> <UniProt (TrEMBL) Primary ID of Target Chain>


> <UniProt (TrEMBL) Secondary ID(s) of Target Chain>


> <UniProt (TrEMBL) Alternative ID(s) of Target Chain>


$$$$
00054001.cdx
  Mrv0541 12012113462D          

 38 41  0  0  0  0            999 V2000
    1.1581   -0.8517    0.0000 C   0  0  0  0  0  0  0  0  0  0  0  0
    1.8726   -0.4392    0.0000 C   0  0  2  0  0  0  0  0  0  0  0  0
    1.8726    0.3858    0.0000 C   0  0  0  0  0  0  0  0  0  0  0  0
    1.1581    0.7983    0.0000 C   0  0  2  0  0  0  0  0  0  0  0  0
    0.4436    0.3858    0.0000 C   0  0  1  0  0  0  0  0  0  0  0  0
    0.4436   -0.4392    0.0000 C   0  0  1  0  0  0  0  0  0  0  0  0
   -0.2708    0.7983    0.0000 O   0  0  0  0  0  0  0  0  0  0  0  0
   -0.9853    0.3858    0.0000 C   0  0  0  0  0  0  0  0  0  0  0  0
   -0.9853   -0.4392    0.0000 C   0  0  0  0  0  0  0  0  0  0  0  0
   -0.2708   -0.8517    0.0000 C   0  0  1  0  0  0  0  0  0  0  0  0
   -1.6998    0.7983    0.0000 C   0  0  0  0  0  0  0  0  0  0  0  0
   -2.4143    0.3858    0.0000 C   0  0  0  0  0  0  0  0  0  0  0  0
   -2.4143   -0.4392    0.0000 O   0  0  0  0  0  0  0  0  0  0  0  0
   -1.6998   -0.8517    0.0000 C   0  0  0  0  0  0  0  0  0  0  0  0
    2.5870   -0.8517    0.0000 C   0  0  1  0  0  0  0  0  0  0  0  0
    2.1745   -1.5662    0.0000 C   0  0  0  0  0  0  0  0  0  0  0  0
   -0.2708   -1.6767    0.0000 O   0  0  0  0  0  0  0  0  0  0  0  0
   -1.6998   -1.6767    0.0000 O   0  0  0  0  0  0  0  0  0  0  0  0
   -3.1287    0.7983    0.0000 C   0  0  0  0  0  0  0  0  0  0  0  0
   -3.8432    0.3858    0.0000 C   0  0  0  0  0  0  0  0  0  0  0  0
   -4.5577    0.7983    0.0000 N   0  0  0  0  0  0  0  0  0  0  0  0
   -4.5577    1.6233    0.0000 C   0  0  0  0  0  0  0  0  0  0  0  0
   -3.8432    2.0358    0.0000 C   0  0  0  0  0  0  0  0  0  0  0  0
   -3.1287    1.6233    0.0000 C   0  0  0  0  0  0  0  0  0  0  0  0
    0.4436    1.2108    0.0000 C   0  0  0  0  0  0  0  0  0  0  0  0
    2.9995   -0.1373    0.0000 C   0  0  0  0  0  0  0  0  0  0  0  0
    1.3495   -1.5662    0.0000 O   0  0  0  0  0  0  0  0  0  0  0  0
    1.1581    1.6233    0.0000 O   0  0  0  0  0  0  0  0  0  0  0  0
   -0.2708    1.6233    0.0000 O   0  0  0  0  0  0  0  0  0  0  0  0
    0.4436    2.0358    0.0000 C   0  0  0  0  0  0  0  0  0  0  0  0
    0.4436    2.8608    0.0000 C   0  0  0  0  0  0  0  0  0  0  0  0
    3.3015   -1.2642    0.0000 O   0  0  0  0  0  0  0  0  0  0  0  0
    4.0160   -2.5017    0.0000 O   0  0  0  0  0  0  0  0  0  0  0  0
    3.3015   -2.0892    0.0000 C   0  0  0  0  0  0  0  0  0  0  0  0
    2.5870   -2.5017    0.0000 C   0  0  0  0  0  0  0  0  0  0  0  0
    0.9370   -2.2807    0.0000 C   0  0  0  0  0  0  0  0  0  0  0  0
    0.1120   -2.2807    0.0000 O   0  0  0  0  0  0  0  0  0  0  0  0
    1.3495   -2.9951    0.0000 C   0  0  0  0  0  0  0  0  0  0  0  0
  2  1  1  0  0  0  0
  2  3  1  0  0  0  0
  4  3  1  0  0  0  0
  5  4  1  0  0  0  0
  5  6  1  0  0  0  0
  6  1  1  6  0  0  0
  5  7  1  0  0  0  0
  7  8  1  0  0  0  0
  8  9  4  0  0  0  0
 10  9  1  0  0  0  0
  6 10  1  0  0  0  0
  8 11  4  0  0  0  0
 11 12  4  0  0  0  0
 12 13  4  0  0  0  0
 13 14  4  0  0  0  0
 14  9  4  0  0  0  0
  2 15  1  6  0  0  0
 15 16  1  0  0  0  0
 10 17  1  6  0  0  0
 14 18  2  0  0  0  0
 12 19  1  0  0  0  0
 19 20  4  0  0  0  0
 20 21  4  0  0  0  0
 21 22  4  0  0  0  0
 22 23  4  0  0  0  0
 23 24  4  0  0  0  0
 24 19  4  0  0  0  0
  5 25  1  6  0  0  0
 15 26  1  6  0  0  0
  4 28  1  6  0  0  0
 15 32  1  1  0  0  0
 32 34  1  0  0  0  0
 33 34  2  0  0  0  0
 34 35  1  0  0  0  0
 28 30  1  0  0  0  0
 29 30  2  0  0  0  0
 30 31  1  0  0  0  0
 16 27  1  0  0  0  0
 27 36  1  0  0  0  0
 36 38  1  0  0  0  0
 36 37  2  0  0  0  0
M  END
> <From>
www.bindingDB.org

> <BindingDB Reactant_set_id>
765835

> <Ligand InChI>
InChI=1S/C27H31NO10/c1-14(29)34-13-26(4,37-16(3)31)18-9-19-24(32)23-21(38-27(19,5)22(10-18)35-15(2)30)11-20(36-25(23)33)17-7-6-8-28-12-17/h6-8,11-12,18-19,22,24,32H,9-10,13H2,1-5H3/t18-,19-,22-,24+,26+,27-/m1/s1

> <Ligand InChI Key>
NIGGKHQHUNJNPM-RQIUQXJASA-N

> <BindingDB MonomerID>
383185

> <BindingDB Ligand Name>
US10278962, Compound 26

> <Target Name>
Sterol O-acyltransferase 2

> <Target Source Organism According to Curator or DataSource>


> <Ki (nM)>


> <IC50 (nM)>
 433

> <Kd (nM)>


> <EC50 (nM)>


> <kon (M-1-s-1)>


> <koff (s-1)>


> <pH>


> <Temp (C)>


> <Curation/DataSource>
US Patent

> <Article DOI>


> <BindingDB Entry DOI>
10.7270/Q2CF9SF8

> <PMID>


> <PubChem AID>
aid1798542

> <Patent Number>
US10278962

> <Authors>
Nan, F; Li, B; Zhan, Y; Zhang, X; Xiong, Y; Hu, X; Zhang, Y

> <Institution>
Shanghai Institute of Materia Medica, Chinese Academy of Sciences

> <Link to Ligand in BindingDB>
http://www.bindingdb.org/bind/chemsearch/marvin/MolStructure.jsp?monomerid=383185

> <Link to Target in BindingDB>
http://www.bindingdb.org/jsp/dbsearch/PrimarySearch_ki.jsp?energyterm=kJ/mole&tag=pol&polymerid=7773&target=Sterol+O-acyltransferase+2&column=ki&startPg=0&Increment=50&submit=Search

> <Link to Ligand-Target Pair in BindingDB>
http://www.bindingdb.org/jsp/dbsearch/PrimarySearch_ki.jsp?energyterm=kJ/mole&tag=r21&monomerid=383185&enzyme=Sterol+O-acyltransferase+2&column=ki&startPg=0&Increment=50&submit=Search

> <Ligand HET ID in PDB>


> <PDB ID(s) for Ligand-Target Complex>


> <PubChem CID>
134188210

> <PubChem SID>
404852479

> <ChEBI ID of Ligand>


> <ChEMBL ID of Ligand>


> <DrugBank ID of Ligand>


> <IUPHAR_GRAC ID of Ligand>


> <KEGG ID of Ligand>


> <ZINC ID of Ligand>


> <Number of Protein Chains in Target (>1 implies a multichain complex)>
1

> <BindingDB Target Chain Sequence>
MEPGGARLRLQRTEGLGGERERQPCGDGNTETHRAPDLVQWTRHMEAVKAQLLEQAQGQLRELLDRAMREAIQSYPSQDKPLPPPPPGSLSRTQEPSLGKQKVFIIRKSLLDELMEVQHFRTIYHMFIAGLCVFIISTLAIDFIDEGRLLLEFDLLIFSFGQLPLALVTWVPMFLSTLLAPYQALRLWARGTWTQATGLGCALLAAHAVVLCALPVHVAVEHQLPPASRCVLVFEQVRFLMKSYSFLREAVPGTLRARRGEGIQAPSFSSYLYFLFCPTLIYRETYPRTPYVRWNYVAKNFAQALGCVLYACFILGRLCVPVFANMSREPFSTRALVLSILHATLPGIFMLLLIFFAFLHCWLNAFAEMLRFGDRMFYRDWWNSTSFSNYYRTWNVVVHDWLYSYVYQDGLRLLGARARGVAMLGVFLVSAVAHEYIFCFVLGFFYPVMLILFLVIGGMLNFMMHDQRTGPAWNVLMWTMLFLGQGIQVSLYCQEWYARRHCPLPQATFWGLVTPRSWSCHT

> <PDB ID(s) of Target Chain>


> <UniProt (SwissProt) Recommended Name of Target Chain>
Sterol O-acyltransferase 2

> <UniProt (SwissProt) Entry Name of Target Chain>
ACAT-2

> <UniProt (SwissProt) Primary ID of Target Chain>
O75908

> <UniProt (SwissProt) Secondary ID(s) of Target Chain>
F5H7W4 I6L9H9 Q4VB99 Q4VBA1 Q96TD4 Q9UNR2

> <UniProt (SwissProt) Alternative ID(s) of Target Chain>


> <UniProt (TrEMBL) Submitted Name of Target Chain>


> <UniProt (TrEMBL) Entry Name of Target Chain>


> <UniProt (TrEMBL) Primary ID of Target Chain>


> <UniProt (TrEMBL) Secondary ID(s) of Target Chain>


> <UniProt (TrEMBL) Alternative ID(s) of Target Chain>


$$$$

  Mrv0541 11241417312D          

 47 52  0  0  0  0            999 V2000
    3.7890   -6.9826    0.0000 C   0  0  0  0  0  0  0  0  0  0  0  0
    4.5152   -8.2145    0.0000 C   0  0  0  0  0  0  0  0  0  0  0  0
    3.7926   -7.8098    0.0000 C   0  0  0  0  0  0  0  0  0  0  0  0
    5.2214   -6.9762    0.0000 C   0  0  0  0  0  0  0  0  0  0  0  0
    5.2174   -7.8014    0.0000 C   0  0  0  0  0  0  0  0  0  0  0  0
    4.5058   -6.5638    0.0000 C   0  0  0  0  0  0  0  0  0  0  0  0
    6.6464   -6.9754    0.0000 O   0  0  0  0  0  0  0  0  0  0  0  0
   10.2129   -5.7377    0.0000 C   0  0  2  0  0  0  0  0  0  0  0  0
   13.0654   -1.6030    0.0000 C   0  0  0  0  0  0  0  0  0  0  0  0
    9.4966   -6.9731    0.0000 C   0  0  0  0  0  0  0  0  0  0  0  0
   12.3571   -2.0151    0.0000 C   0  0  0  0  0  0  0  0  0  0  0  0
   11.6497   -3.2493    0.0000 C   0  0  0  0  0  0  0  0  0  0  0  0
    9.4905   -2.8421    0.0000 O   0  0  0  0  0  0  0  0  0  0  0  0
   11.6391   -5.7396    0.0000 O   0  0  0  0  0  0  0  0  0  0  0  0
    8.7845   -6.5646    0.0000 C   0  0  1  0  0  0  0  0  0  0  0  0
   13.7875   -2.8337    0.0000 N   0  0  0  0  0  0  0  0  0  0  0  0
    9.4976   -5.3232    0.0000 C   0  0  2  0  0  0  0  0  0  0  0  0
   10.2046   -3.2521    0.0000 C   0  0  0  0  0  0  0  0  0  0  0  0
    9.4918   -4.4962    0.0000 C   0  0  1  0  0  0  0  0  0  0  0  0
    8.0662   -6.9716    0.0000 C   0  0  2  0  0  0  0  0  0  0  0  0
    8.4754   -7.6836    0.0000 C   0  0  0  0  0  0  0  0  0  0  0  0
    5.9328   -5.7427    0.0000 O   0  0  0  0  0  0  0  0  0  0  0  0
   13.0747   -3.2506    0.0000 C   0  0  0  0  0  0  0  0  0  0  0  0
   10.9266   -2.8318    0.0000 O   0  0  0  0  0  0  0  0  0  0  0  0
    6.8285   -9.1078    0.0000 C   0  0  0  0  0  0  0  0  0  0  0  0
   11.6375   -6.5646    0.0000 C   0  0  0  0  0  0  0  0  0  0  0  0
   12.3518   -6.9753    0.0000 C   0  0  0  0  0  0  0  0  0  0  0  0
    7.3605   -5.7396    0.0000 C   0  0  0  0  0  0  0  0  0  0  0  0
   10.9343   -4.4963    0.0000 C   0  0  0  0  0  0  0  0  0  0  0  0
   10.9258   -6.9725    0.0000 O   0  0  0  0  0  0  0  0  0  0  0  0
    5.5915   -8.3847    0.0000 O   0  0  0  0  0  0  0  0  0  0  0  0
   10.9271   -5.3231    0.0000 O   0  0  0  0  0  0  0  0  0  0  0  0
    6.4165   -8.3887    0.0000 C   0  0  0  0  0  0  0  0  0  0  0  0
    7.6563   -7.6797    0.0000 C   0  0  0  0  0  0  0  0  0  0  0  0
    6.8313   -7.6757    0.0000 O   0  0  0  0  0  0  0  0  0  0  0  0
    5.9305   -6.5676    0.0000 C   0  0  0  0  0  0  0  0  0  0  0  0
    8.7740   -4.0839    0.0000 O   0  0  0  0  0  0  0  0  0  0  0  0
   13.7853   -2.0073    0.0000 C   0  0  0  0  0  0  0  0  0  0  0  0
   12.3621   -2.8350    0.0000 C   0  0  0  0  0  0  0  0  0  0  0  0
    8.0717   -5.3218    0.0000 C   0  0  0  0  0  0  0  0  0  0  0  0
    7.3605   -6.5646    0.0000 C   0  0  2  0  0  0  0  0  0  0  0  0
   10.2117   -6.5618    0.0000 C   0  0  2  0  0  0  0  0  0  0  0  0
   10.2084   -4.9083    0.0000 C   0  0  0  0  0  0  0  0  0  0  0  0
   10.2111   -4.0851    0.0000 C   0  0  0  0  0  0  0  0  0  0  0  0
    8.7830   -5.7396    0.0000 C   0  0  1  0  0  0  0  0  0  0  0  0
    8.7760   -4.9146    0.0000 C   0  0  0  0  0  0  0  0  0  0  0  0
   11.6468   -4.0807    0.0000 C   0  0  0  0  0  0  0  0  0  0  0  0
  2  5  2  0  0  0  0
  4  6  2  0  0  0  0
  1  3  2  0  0  0  0
  3  2  1  0  0  0  0
  5  4  1  0  0  0  0
  6  1  1  0  0  0  0
 29 47  1  0  0  0  0
 44 18  1  0  0  0  0
 15 10  1  1  0  0  0
 11 39  1  0  0  0  0
 34 35  1  0  0  0  0
 20 34  1  6  0  0  0
 19 44  1  0  0  0  0
 12 39  1  0  0  0  0
 24 18  1  0  0  0  0
 39 23  2  0  0  0  0
  7 36  1  0  0  0  0
  9 11  2  0  0  0  0
 16 38  2  0  0  0  0
 32 29  1  0  0  0  0
  8 42  1  0  0  0  0
 33 25  1  0  0  0  0
 18 13  2  0  0  0  0
 42 10  1  0  0  0  0
 30 26  1  0  0  0  0
 19 37  1  1  0  0  0
 42 30  1  1  0  0  0
 12 24  1  0  0  0  0
 15 20  1  0  0  0  0
 17 19  1  1  0  0  0
 20 41  1  0  0  0  0
 45 40  1  0  0  0  0
 36 22  2  0  0  0  0
 23 16  1  0  0  0  0
 26 14  2  0  0  0  0
 17 45  1  0  0  0  0
  8 43  1  1  0  0  0
 33 31  2  0  0  0  0
 38  9  1  0  0  0  0
 17  8  1  0  0  0  0
 35 33  1  0  0  0  0
 20 21  1  1  0  0  0
 26 27  1  0  0  0  0
 36  4  1  0  0  0  0
 44 29  2  0  0  0  0
  8 32  1  0  0  0  0
 45 46  1  1  0  0  0
 45 15  1  0  0  0  0
 47 12  2  0  0  0  0
 41 28  1  0  0  0  0
 28 40  1  0  0  0  0
 41  7  1  1  0  0  0
M  END
> <From>
www.bindingDB.org

> <BindingDB Reactant_set_id>
51061798

> <Ligand InChI>
InChI=1S/C36H39NO10/c1-20(38)43-19-35(4)26-17-28(44-21(2)39)36(5)31(34(26,3)14-13-27(35)46-32(41)22-10-7-6-8-11-22)30(40)29-25(47-36)16-24(45-33(29)42)23-12-9-15-37-18-23/h6-12,15-16,18,26-28,30-31,40H,13-14,17,19H2,1-5H3/t26-,27+,28+,30+,31-,34+,35+,36-/m1/s1

> <Ligand InChI Key>
CHBNSZDABBHCND-HRSZXCBJSA-N

> <BindingDB MonomerID>
50433205

> <BindingDB Ligand Name>
CHEMBL2375695

> <Target Name>
Sterol O-acyltransferase 2

> <Target Source Organism According to Curator or DataSource>


> <Ki (nM)>


> <IC50 (nM)>
 500

> <Kd (nM)>


> <EC50 (nM)>


> <kon (M-1-s-1)>


> <koff (s-1)>


> <pH>


> <Temp (C)>


> <Curation/DataSource>
ChEMBL

> <Article DOI>
10.1016/j.bmcl.2013.02.088

> <BindingDB Entry DOI>
10.7270/Q20866P3

> <PMID>
23535327

> <PubChem AID>


> <Patent Number>


> <Authors>
Ohtawa, M; Yamazaki, H; Matsuda, D; Ohshiro, T; Rudel, LL; Omura, S; Tomoda, H; Nagamitsu, T

> <Institution>
Kitasato University

> <Link to Ligand in BindingDB>
http://www.bindingdb.org/bind/chemsearch/marvin/MolStructure.jsp?monomerid=50433205

> <Link to Target in BindingDB>
http://www.bindingdb.org/jsp/dbsearch/PrimarySearch_ki.jsp?energyterm=kJ/mole&tag=pol&polymerid=7773&target=Sterol+O-acyltransferase+2&column=ki&startPg=0&Increment=50&submit=Search

> <Link to Ligand-Target Pair in BindingDB>
http://www.bindingdb.org/jsp/dbsearch/PrimarySearch_ki.jsp?energyterm=kJ/mole&tag=r21&monomerid=50433205&enzyme=Sterol+O-acyltransferase+2&column=ki&startPg=0&Increment=50&submit=Search

> <Ligand HET ID in PDB>


> <PDB ID(s) for Ligand-Target Complex>


> <PubChem CID>
73348799

> <PubChem SID>
175445522

> <ChEBI ID of Ligand>


> <ChEMBL ID of Ligand>
CHEMBL2375695

> <DrugBank ID of Ligand>


> <IUPHAR_GRAC ID of Ligand>


> <KEGG ID of Ligand>


> <ZINC ID of Ligand>
ZINC96258621

> <Number of Protein Chains in Target (>1 implies a multichain complex)>
1

> <BindingDB Target Chain Sequence>
MEPGGARLRLQRTEGLGGERERQPCGDGNTETHRAPDLVQWTRHMEAVKAQLLEQAQGQLRELLDRAMREAIQSYPSQDKPLPPPPPGSLSRTQEPSLGKQKVFIIRKSLLDELMEVQHFRTIYHMFIAGLCVFIISTLAIDFIDEGRLLLEFDLLIFSFGQLPLALVTWVPMFLSTLLAPYQALRLWARGTWTQATGLGCALLAAHAVVLCALPVHVAVEHQLPPASRCVLVFEQVRFLMKSYSFLREAVPGTLRARRGEGIQAPSFSSYLYFLFCPTLIYRETYPRTPYVRWNYVAKNFAQALGCVLYACFILGRLCVPVFANMSREPFSTRALVLSILHATLPGIFMLLLIFFAFLHCWLNAFAEMLRFGDRMFYRDWWNSTSFSNYYRTWNVVVHDWLYSYVYQDGLRLLGARARGVAMLGVFLVSAVAHEYIFCFVLGFFYPVMLILFLVIGGMLNFMMHDQRTGPAWNVLMWTMLFLGQGIQVSLYCQEWYARRHCPLPQATFWGLVTPRSWSCHT

> <PDB ID(s) of Target Chain>


> <UniProt (SwissProt) Recommended Name of Target Chain>
Sterol O-acyltransferase 2

> <UniProt (SwissProt) Entry Name of Target Chain>
ACAT-2

> <UniProt (SwissProt) Primary ID of Target Chain>
O75908

> <UniProt (SwissProt) Secondary ID(s) of Target Chain>
F5H7W4 I6L9H9 Q4VB99 Q4VBA1 Q96TD4 Q9UNR2

> <UniProt (SwissProt) Alternative ID(s) of Target Chain>


> <UniProt (TrEMBL) Submitted Name of Target Chain>


> <UniProt (TrEMBL) Entry Name of Target Chain>


> <UniProt (TrEMBL) Primary ID of Target Chain>


> <UniProt (TrEMBL) Secondary ID(s) of Target Chain>


> <UniProt (TrEMBL) Alternative ID(s) of Target Chain>


$$$$
00029001.cdx
  Mrv0541 06191611392D          

 50 53  0  0  0  0            999 V2000
   -6.9626    0.6187    0.0000 C   0  0  0  0  0  0  0  0  0  0  0  0
   -6.9626   -0.2062    0.0000 C   0  0  0  0  0  0  0  0  0  0  0  0
   -6.2480   -0.6187    0.0000 C   0  0  0  0  0  0  0  0  0  0  0  0
   -5.5336   -0.2062    0.0000 C   0  0  0  0  0  0  0  0  0  0  0  0
   -6.2480    1.0312    0.0000 C   0  0  0  0  0  0  0  0  0  0  0  0
   -6.2480   -1.4437    0.0000 C   0  0  0  0  0  0  0  0  0  0  0  0
   -5.5336   -1.8562    0.0000 C   0  0  0  0  0  0  0  0  0  0  0  0
   -6.9626   -1.8562    0.0000 C   0  0  0  0  0  0  0  0  0  0  0  0
   -3.9941    1.0312    0.0000 O   0  0  0  0  0  0  0  0  0  0  0  0
   -4.7086   -0.2062    0.0000 N   0  0  0  0  0  0  0  0  0  0  0  0
   -3.9941    0.2062    0.0000 C   0  0  0  0  0  0  0  0  0  0  0  0
   -3.2796   -0.2062    0.0000 C   0  0  0  0  0  0  0  0  0  0  0  0
   -2.5651    0.2062    0.0000 C   0  0  0  0  0  0  0  0  0  0  0  0
   -1.8507   -0.2062    0.0000 C   0  0  0  0  0  0  0  0  0  0  0  0
   -2.5651    1.0312    0.0000 O   0  0  0  0  0  0  0  0  0  0  0  0
   -1.1361    0.2062    0.0000 C   0  0  0  0  0  0  0  0  0  0  0  0
   -1.1361    1.0312    0.0000 C   0  0  0  0  0  0  0  0  0  0  0  0
   -0.4217    1.4437    0.0000 C   0  0  0  0  0  0  0  0  0  0  0  0
   -0.4217    2.2688    0.0000 C   0  0  0  0  0  0  0  0  0  0  0  0
   -1.1361    2.6813    0.0000 C   0  0  0  0  0  0  0  0  0  0  0  0
   -1.8507    2.2688    0.0000 C   0  0  0  0  0  0  0  0  0  0  0  0
   -1.8507    1.4437    0.0000 C   0  0  0  0  0  0  0  0  0  0  0  0
   -1.8507   -1.0312    0.0000 C   0  0  0  0  0  0  0  0  0  0  0  0
   -1.1361   -1.4437    0.0000 C   0  0  0  0  0  0  0  0  0  0  0  0
   -1.1361   -2.2688    0.0000 C   0  0  0  0  0  0  0  0  0  0  0  0
   -0.4217   -2.6813    0.0000 C   0  0  0  0  0  0  0  0  0  0  0  0
    0.2928   -2.2688    0.0000 C   0  0  0  0  0  0  0  0  0  0  0  0
    0.2928   -1.4437    0.0000 C   0  0  0  0  0  0  0  0  0  0  0  0
   -0.4217   -1.0312    0.0000 C   0  0  0  0  0  0  0  0  0  0  0  0
   -5.1211    1.3333    0.0000 C   0  0  0  0  0  0  0  0  0  0  0  0
   -4.2961    1.3333    0.0000 C   0  0  0  0  0  0  0  0  0  0  0  0
   -5.5336    0.6187    0.0000 C   0  0  0  0  0  0  0  0  0  0  0  0
   -5.5336    2.0477    0.0000 C   0  0  0  0  0  0  0  0  0  0  0  0
    1.0897   -2.4823    0.0000 O   0  0  0  0  0  0  0  0  0  0  0  0
    1.6731   -1.8990    0.0000 C   0  0  0  0  0  0  0  0  0  0  0  0
    2.4699   -2.1124    0.0000 C   0  0  0  0  0  0  0  0  0  0  0  0
    1.4595   -1.1021    0.0000 O   0  0  0  0  0  0  0  0  0  0  0  0
    3.0534   -1.5291    0.0000 C   0  0  0  0  0  0  0  0  0  0  0  0
    3.8503   -1.7426    0.0000 C   0  0  0  0  0  0  0  0  0  0  0  0
    4.4336   -1.1592    0.0000 C   0  0  0  0  0  0  0  0  0  0  0  0
    5.2305   -1.3728    0.0000 C   0  0  0  0  0  0  0  0  0  0  0  0
    5.8139   -0.7894    0.0000 C   0  0  0  0  0  0  0  0  0  0  0  0
    5.6004    0.0075    0.0000 N   0  0  0  0  0  0  0  0  0  0  0  0
    6.2480    0.5185    0.0000 C   0  0  0  0  0  0  0  0  0  0  0  0
    6.2480    1.3435    0.0000 C   0  0  0  0  0  0  0  0  0  0  0  0
    5.6004    1.8613    0.0000 C   0  0  0  0  0  0  0  0  0  0  0  0
    4.7951    1.6819    0.0000 C   0  0  0  0  0  0  0  0  0  0  0  0
    4.4332    0.9405    0.0000 C   0  0  0  0  0  0  0  0  0  0  0  0
    4.7951    0.1953    0.0000 C   0  0  0  0  0  0  0  0  0  0  0  0
    6.9626    0.1060    0.0000 O   0  0  0  0  0  0  0  0  0  0  0  0
  1  2  4  0  0  0  0
  2  3  4  0  0  0  0
  3  4  4  0  0  0  0
  4 32  4  0  0  0  0
 32  5  4  0  0  0  0
  5  1  4  0  0  0  0
  3  6  1  0  0  0  0
  6  7  1  0  0  0  0
  6  8  1  0  0  0  0
  4 10  1  0  0  0  0
 10 11  1  0  0  0  0
 11 12  1  0  0  0  0
 11  9  2  0  0  0  0
 12 13  1  0  0  0  0
 13 14  1  0  0  0  0
 13 15  2  0  0  0  0
 14 16  1  0  0  0  0
 16 17  1  0  0  0  0
 17 18  4  0  0  0  0
 18 19  4  0  0  0  0
 19 20  4  0  0  0  0
 20 21  4  0  0  0  0
 21 22  4  0  0  0  0
 22 17  4  0  0  0  0
 14 23  1  0  0  0  0
 23 24  1  0  0  0  0
 24 25  4  0  0  0  0
 25 26  4  0  0  0  0
 26 27  4  0  0  0  0
 27 28  4  0  0  0  0
 28 29  4  0  0  0  0
 29 24  4  0  0  0  0
 30 31  1  0  0  0  0
 30 32  1  0  0  0  0
 30 33  1  0  0  0  0
 27 34  1  0  0  0  0
 34 35  1  0  0  0  0
 35 36  1  0  0  0  0
 35 37  2  0  0  0  0
 36 38  1  0  0  0  0
 38 39  1  0  0  0  0
 39 40  1  0  0  0  0
 40 41  1  0  0  0  0
 41 42  1  0  0  0  0
 42 43  1  0  0  0  0
 43 44  1  0  0  0  0
 44 45  1  0  0  0  0
 45 46  1  0  0  0  0
 46 47  1  0  0  0  0
 47 48  1  0  0  0  0
 48 49  1  0  0  0  0
 49 43  1  0  0  0  0
 44 50  2  0  0  0  0
M  END
> <From>
www.bindingDB.org

> <BindingDB Reactant_set_id>
330435

> <Ligand InChI>
InChI=1S/C43H56N2O5/c1-31(2)37-18-15-19-38(32(3)4)43(37)44-40(47)30-39(46)35(28-33-16-9-7-10-17-33)29-34-22-24-36(25-23-34)50-42(49)21-12-5-6-13-26-45-27-14-8-11-20-41(45)48/h7,9-10,15-19,22-25,31-32,35H,5-6,8,11-14,20-21,26-30H2,1-4H3,(H,44,47)

> <Ligand InChI Key>
YXOPOKKYMJEBRR-UHFFFAOYSA-N

> <BindingDB MonomerID>
182851

> <BindingDB Ligand Name>
US9149492, Compound 1C

> <Target Name>
Sterol O-acyltransferase 2

> <Target Source Organism According to Curator or DataSource>


> <Ki (nM)>


> <IC50 (nM)>
 530

> <Kd (nM)>


> <EC50 (nM)>


> <kon (M-1-s-1)>


> <koff (s-1)>


> <pH>


> <Temp (C)>


> <Curation/DataSource>
US Patent

> <Article DOI>


> <BindingDB Entry DOI>
10.7270/Q2N015BF

> <PMID>


> <PubChem AID>
aid1801692

> <Patent Number>
US9149492

> <Authors>
Chang, T; Chang, CC; Shibuya, Y; Bryleva, E; Murphy, S; Rogers, MA

> <Institution>
Dartmouth College

> <Link to Ligand in BindingDB>
http://www.bindingdb.org/bind/chemsearch/marvin/MolStructure.jsp?monomerid=182851

> <Link to Target in BindingDB>
http://www.bindingdb.org/jsp/dbsearch/PrimarySearch_ki.jsp?energyterm=kJ/mole&tag=pol&polymerid=7773&target=Sterol+O-acyltransferase+2&column=ki&startPg=0&Increment=50&submit=Search

> <Link to Ligand-Target Pair in BindingDB>
http://www.bindingdb.org/jsp/dbsearch/PrimarySearch_ki.jsp?energyterm=kJ/mole&tag=r21&monomerid=182851&enzyme=Sterol+O-acyltransferase+2&column=ki&startPg=0&Increment=50&submit=Search

> <Ligand HET ID in PDB>


> <PDB ID(s) for Ligand-Target Complex>


> <PubChem CID>
10372411

> <PubChem SID>
313634374

> <ChEBI ID of Ligand>


> <ChEMBL ID of Ligand>


> <DrugBank ID of Ligand>


> <IUPHAR_GRAC ID of Ligand>


> <KEGG ID of Ligand>


> <ZINC ID of Ligand>


> <Number of Protein Chains in Target (>1 implies a multichain complex)>
1

> <BindingDB Target Chain Sequence>
MEPGGARLRLQRTEGLGGERERQPCGDGNTETHRAPDLVQWTRHMEAVKAQLLEQAQGQLRELLDRAMREAIQSYPSQDKPLPPPPPGSLSRTQEPSLGKQKVFIIRKSLLDELMEVQHFRTIYHMFIAGLCVFIISTLAIDFIDEGRLLLEFDLLIFSFGQLPLALVTWVPMFLSTLLAPYQALRLWARGTWTQATGLGCALLAAHAVVLCALPVHVAVEHQLPPASRCVLVFEQVRFLMKSYSFLREAVPGTLRARRGEGIQAPSFSSYLYFLFCPTLIYRETYPRTPYVRWNYVAKNFAQALGCVLYACFILGRLCVPVFANMSREPFSTRALVLSILHATLPGIFMLLLIFFAFLHCWLNAFAEMLRFGDRMFYRDWWNSTSFSNYYRTWNVVVHDWLYSYVYQDGLRLLGARARGVAMLGVFLVSAVAHEYIFCFVLGFFYPVMLILFLVIGGMLNFMMHDQRTGPAWNVLMWTMLFLGQGIQVSLYCQEWYARRHCPLPQATFWGLVTPRSWSCHT

> <PDB ID(s) of Target Chain>


> <UniProt (SwissProt) Recommended Name of Target Chain>
Sterol O-acyltransferase 2

> <UniProt (SwissProt) Entry Name of Target Chain>
ACAT-2

> <UniProt (SwissProt) Primary ID of Target Chain>
O75908

> <UniProt (SwissProt) Secondary ID(s) of Target Chain>
F5H7W4 I6L9H9 Q4VB99 Q4VBA1 Q96TD4 Q9UNR2

> <UniProt (SwissProt) Alternative ID(s) of Target Chain>


> <UniProt (TrEMBL) Submitted Name of Target Chain>


> <UniProt (TrEMBL) Entry Name of Target Chain>


> <UniProt (TrEMBL) Primary ID of Target Chain>


> <UniProt (TrEMBL) Secondary ID(s) of Target Chain>


> <UniProt (TrEMBL) Alternative ID(s) of Target Chain>


$$$$
00030001.cdx
  Mrv0541 06191611392D          

 45 48  0  0  0  0            999 V2000
   -5.8430    0.6341    0.0000 C   0  0  0  0  0  0  0  0  0  0  0  0
   -5.8430   -0.1909    0.0000 C   0  0  0  0  0  0  0  0  0  0  0  0
   -5.1285   -0.6034    0.0000 C   0  0  0  0  0  0  0  0  0  0  0  0
   -4.4140   -0.1909    0.0000 C   0  0  0  0  0  0  0  0  0  0  0  0
   -5.1285    1.0466    0.0000 C   0  0  0  0  0  0  0  0  0  0  0  0
   -5.1285   -1.4284    0.0000 C   0  0  0  0  0  0  0  0  0  0  0  0
   -4.4140   -1.8409    0.0000 C   0  0  0  0  0  0  0  0  0  0  0  0
   -5.8430   -1.8409    0.0000 C   0  0  0  0  0  0  0  0  0  0  0  0
   -2.8745    1.0466    0.0000 O   0  0  0  0  0  0  0  0  0  0  0  0
   -3.5890   -0.1909    0.0000 N   0  0  0  0  0  0  0  0  0  0  0  0
   -2.8745    0.2216    0.0000 C   0  0  0  0  0  0  0  0  0  0  0  0
   -2.1601   -0.1909    0.0000 C   0  0  0  0  0  0  0  0  0  0  0  0
   -1.4456    0.2216    0.0000 C   0  0  0  0  0  0  0  0  0  0  0  0
   -0.7311   -0.1909    0.0000 C   0  0  0  0  0  0  0  0  0  0  0  0
   -1.4456    1.0466    0.0000 O   0  0  0  0  0  0  0  0  0  0  0  0
   -0.0167    0.2216    0.0000 C   0  0  0  0  0  0  0  0  0  0  0  0
   -0.0167    1.0466    0.0000 C   0  0  0  0  0  0  0  0  0  0  0  0
    0.6978    1.4591    0.0000 C   0  0  0  0  0  0  0  0  0  0  0  0
    0.6978    2.2841    0.0000 C   0  0  0  0  0  0  0  0  0  0  0  0
   -0.0167    2.6966    0.0000 C   0  0  0  0  0  0  0  0  0  0  0  0
   -0.7311    2.2841    0.0000 C   0  0  0  0  0  0  0  0  0  0  0  0
   -0.7311    1.4591    0.0000 C   0  0  0  0  0  0  0  0  0  0  0  0
   -0.7311   -1.0159    0.0000 C   0  0  0  0  0  0  0  0  0  0  0  0
   -0.0167   -1.4284    0.0000 C   0  0  0  0  0  0  0  0  0  0  0  0
   -0.0167   -2.2534    0.0000 C   0  0  0  0  0  0  0  0  0  0  0  0
    0.6978   -2.6659    0.0000 C   0  0  0  0  0  0  0  0  0  0  0  0
    1.4123   -2.2534    0.0000 C   0  0  0  0  0  0  0  0  0  0  0  0
    1.4123   -1.4284    0.0000 C   0  0  0  0  0  0  0  0  0  0  0  0
    0.6978   -1.0159    0.0000 C   0  0  0  0  0  0  0  0  0  0  0  0
   -4.0015    1.3486    0.0000 C   0  0  0  0  0  0  0  0  0  0  0  0
   -3.1765    1.3486    0.0000 C   0  0  0  0  0  0  0  0  0  0  0  0
   -4.4140    0.6341    0.0000 C   0  0  0  0  0  0  0  0  0  0  0  0
   -4.4140    2.0631    0.0000 C   0  0  0  0  0  0  0  0  0  0  0  0
    2.2092   -2.4669    0.0000 O   0  0  0  0  0  0  0  0  0  0  0  0
    2.7925   -1.8835    0.0000 C   0  0  0  0  0  0  0  0  0  0  0  0
    3.5894   -2.0970    0.0000 C   0  0  0  0  0  0  0  0  0  0  0  0
    2.5790   -1.0866    0.0000 O   0  0  0  0  0  0  0  0  0  0  0  0
    5.3286   -0.0644    0.0000 C   0  0  0  0  0  0  0  0  0  0  0  0
    4.5036   -0.0644    0.0000 C   0  0  0  0  0  0  0  0  0  0  0  0
    3.9892   -0.7094    0.0000 C   0  0  0  0  0  0  0  0  0  0  0  0
    4.1728   -1.5137    0.0000 N   0  0  0  0  0  0  0  0  0  0  0  0
    4.9161   -1.8716    0.0000 C   0  0  0  0  0  0  0  0  0  0  0  0
    5.6594   -1.5137    0.0000 C   0  0  0  0  0  0  0  0  0  0  0  0
    5.8430   -0.7094    0.0000 C   0  0  0  0  0  0  0  0  0  0  0  0
    4.9161   -2.6966    0.0000 O   0  0  0  0  0  0  0  0  0  0  0  0
  1  2  4  0  0  0  0
  2  3  4  0  0  0  0
  3  4  4  0  0  0  0
  4 32  4  0  0  0  0
 32  5  4  0  0  0  0
  5  1  4  0  0  0  0
  3  6  1  0  0  0  0
  6  7  1  0  0  0  0
  6  8  1  0  0  0  0
  4 10  1  0  0  0  0
 10 11  1  0  0  0  0
 11 12  1  0  0  0  0
 11  9  2  0  0  0  0
 12 13  1  0  0  0  0
 13 14  1  0  0  0  0
 13 15  2  0  0  0  0
 14 16  1  0  0  0  0
 16 17  1  0  0  0  0
 17 18  4  0  0  0  0
 18 19  4  0  0  0  0
 19 20  4  0  0  0  0
 20 21  4  0  0  0  0
 21 22  4  0  0  0  0
 22 17  4  0  0  0  0
 14 23  1  0  0  0  0
 23 24  1  0  0  0  0
 24 25  4  0  0  0  0
 25 26  4  0  0  0  0
 26 27  4  0  0  0  0
 27 28  4  0  0  0  0
 28 29  4  0  0  0  0
 29 24  4  0  0  0  0
 30 31  1  0  0  0  0
 30 32  1  0  0  0  0
 30 33  1  0  0  0  0
 27 34  1  0  0  0  0
 34 35  1  0  0  0  0
 35 36  1  0  0  0  0
 35 37  2  0  0  0  0
 36 41  1  0  0  0  0
 38 39  1  0  0  0  0
 39 40  1  0  0  0  0
 40 41  1  0  0  0  0
 41 42  1  0  0  0  0
 42 43  1  0  0  0  0
 43 44  1  0  0  0  0
 44 38  1  0  0  0  0
 42 45  2  0  0  0  0
M  END
> <From>
www.bindingDB.org

> <BindingDB Reactant_set_id>
330436

> <Ligand InChI>
InChI=1S/C38H46N2O5/c1-26(2)32-14-11-15-33(27(3)4)38(32)39-35(42)24-34(41)30(22-28-12-7-5-8-13-28)23-29-17-19-31(20-18-29)45-37(44)25-40-21-10-6-9-16-36(40)43/h5,7-8,11-15,17-20,26-27,30H,6,9-10,16,21-25H2,1-4H3,(H,39,42)

> <Ligand InChI Key>
NCYIHYBRISFJLW-UHFFFAOYSA-N

> <BindingDB MonomerID>
182852

> <BindingDB Ligand Name>
US9149492, Compound 1D

> <Target Name>
Sterol O-acyltransferase 2

> <Target Source Organism According to Curator or DataSource>


> <Ki (nM)>


> <IC50 (nM)>
 600

> <Kd (nM)>


> <EC50 (nM)>


> <kon (M-1-s-1)>


> <koff (s-1)>


> <pH>


> <Temp (C)>


> <Curation/DataSource>
US Patent

> <Article DOI>


> <BindingDB Entry DOI>
10.7270/Q2N015BF

> <PMID>


> <PubChem AID>
aid1801692

> <Patent Number>
US9149492

> <Authors>
Chang, T; Chang, CC; Shibuya, Y; Bryleva, E; Murphy, S; Rogers, MA

> <Institution>
Dartmouth College

> <Link to Ligand in BindingDB>
http://www.bindingdb.org/bind/chemsearch/marvin/MolStructure.jsp?monomerid=182852

> <Link to Target in BindingDB>
http://www.bindingdb.org/jsp/dbsearch/PrimarySearch_ki.jsp?energyterm=kJ/mole&tag=pol&polymerid=7773&target=Sterol+O-acyltransferase+2&column=ki&startPg=0&Increment=50&submit=Search

> <Link to Ligand-Target Pair in BindingDB>
http://www.bindingdb.org/jsp/dbsearch/PrimarySearch_ki.jsp?energyterm=kJ/mole&tag=r21&monomerid=182852&enzyme=Sterol+O-acyltransferase+2&column=ki&startPg=0&Increment=50&submit=Search

> <Ligand HET ID in PDB>


> <PDB ID(s) for Ligand-Target Complex>


> <PubChem CID>
10371551

> <PubChem SID>
313634375

> <ChEBI ID of Ligand>


> <ChEMBL ID of Ligand>


> <DrugBank ID of Ligand>


> <IUPHAR_GRAC ID of Ligand>


> <KEGG ID of Ligand>


> <ZINC ID of Ligand>


> <Number of Protein Chains in Target (>1 implies a multichain complex)>
1

> <BindingDB Target Chain Sequence>
MEPGGARLRLQRTEGLGGERERQPCGDGNTETHRAPDLVQWTRHMEAVKAQLLEQAQGQLRELLDRAMREAIQSYPSQDKPLPPPPPGSLSRTQEPSLGKQKVFIIRKSLLDELMEVQHFRTIYHMFIAGLCVFIISTLAIDFIDEGRLLLEFDLLIFSFGQLPLALVTWVPMFLSTLLAPYQALRLWARGTWTQATGLGCALLAAHAVVLCALPVHVAVEHQLPPASRCVLVFEQVRFLMKSYSFLREAVPGTLRARRGEGIQAPSFSSYLYFLFCPTLIYRETYPRTPYVRWNYVAKNFAQALGCVLYACFILGRLCVPVFANMSREPFSTRALVLSILHATLPGIFMLLLIFFAFLHCWLNAFAEMLRFGDRMFYRDWWNSTSFSNYYRTWNVVVHDWLYSYVYQDGLRLLGARARGVAMLGVFLVSAVAHEYIFCFVLGFFYPVMLILFLVIGGMLNFMMHDQRTGPAWNVLMWTMLFLGQGIQVSLYCQEWYARRHCPLPQATFWGLVTPRSWSCHT

> <PDB ID(s) of Target Chain>


> <UniProt (SwissProt) Recommended Name of Target Chain>
Sterol O-acyltransferase 2

> <UniProt (SwissProt) Entry Name of Target Chain>
ACAT-2

> <UniProt (SwissProt) Primary ID of Target Chain>
O75908

> <UniProt (SwissProt) Secondary ID(s) of Target Chain>
F5H7W4 I6L9H9 Q4VB99 Q4VBA1 Q96TD4 Q9UNR2

> <UniProt (SwissProt) Alternative ID(s) of Target Chain>


> <UniProt (TrEMBL) Submitted Name of Target Chain>


> <UniProt (TrEMBL) Entry Name of Target Chain>


> <UniProt (TrEMBL) Primary ID of Target Chain>


> <UniProt (TrEMBL) Secondary ID(s) of Target Chain>


> <UniProt (TrEMBL) Alternative ID(s) of Target Chain>


$$$$

  Mrv0541 11241417312D          

 54 60  0  0  0  0            999 V2000
    9.4824   -9.4365    0.0000 C   0  0  1  0  0  0  0  0  0  0  0  0
   13.0633   -5.7145    0.0000 C   0  0  0  0  0  0  0  0  0  0  0  0
   13.7721   -4.4834    0.0000 C   0  0  0  0  0  0  0  0  0  0  0  0
   10.1888   -6.5515    0.0000 O   0  0  0  0  0  0  0  0  0  0  0  0
   14.4905   -5.7155    0.0000 C   0  0  0  0  0  0  0  0  0  0  0  0
   11.6198   -5.7192    0.0000 C   0  0  0  0  0  0  0  0  0  0  0  0
    7.0046  -10.8573    0.0000 O   0  0  0  0  0  0  0  0  0  0  0  0
   10.1987   -9.0303    0.0000 C   0  0  1  0  0  0  0  0  0  0  0  0
   10.1976   -8.2053    0.0000 C   0  0  1  0  0  0  0  0  0  0  0  0
   13.0562   -8.2053    0.0000 O   0  0  0  0  0  0  0  0  0  0  0  0
   16.6222  -11.0896    0.0000 N   0  0  0  0  0  0  0  0  0  0  0  0
   12.3491   -6.9612    0.0000 C   0  0  0  0  0  0  0  0  0  0  0  0
   13.7628  -10.2668    0.0000 C   0  0  0  0  0  0  0  0  0  0  0  0
   13.7753   -5.3050    0.0000 C   0  0  0  0  0  0  0  0  0  0  0  0
   12.3407   -9.4398    0.0000 O   0  0  0  0  0  0  0  0  0  0  0  0
    8.7746   -9.0303    0.0000 C   0  0  2  0  0  0  0  0  0  0  0  0
   10.9111   -7.7875    0.0000 C   0  0  2  0  0  0  0  0  0  0  0  0
    9.0716  -10.1500    0.0000 C   0  0  0  0  0  0  0  0  0  0  0  0
   14.4760   -9.0317    0.0000 C   0  0  0  0  0  0  0  0  0  0  0  0
   13.0640   -6.5466    0.0000 C   0  0  0  0  0  0  0  0  0  0  0  0
   11.6273   -9.0285    0.0000 C   0  0  2  0  0  0  0  0  0  0  0  0
    9.4861   -7.7865    0.0000 C   0  0  0  0  0  0  0  0  0  0  0  0
   10.9038   -5.3083    0.0000 O   0  0  0  0  0  0  0  0  0  0  0  0
   15.2016   -4.4783    0.0000 C   0  0  0  0  0  0  0  0  0  0  0  0
   11.6269   -6.5495    0.0000 C   0  0  0  0  0  0  0  0  0  0  0  0
    8.7746   -8.2053    0.0000 C   0  0  0  0  0  0  0  0  0  0  0  0
   15.9041  -10.6792    0.0000 C   0  0  0  0  0  0  0  0  0  0  0  0
   14.4817   -4.0654    0.0000 C   0  0  0  0  0  0  0  0  0  0  0  0
   15.2030   -5.3042    0.0000 N   0  0  0  0  0  0  0  0  0  0  0  0
    8.2420  -11.5752    0.0000 C   0  0  0  0  0  0  0  0  0  0  0  0
   13.0552   -9.0304    0.0000 C   0  0  0  0  0  0  0  0  0  0  0  0
   11.6224   -7.3761    0.0000 C   0  0  0  0  0  0  0  0  0  0  0  0
   12.3414   -7.7901    0.0000 O   0  0  0  0  0  0  0  0  0  0  0  0
   15.1909  -10.2685    0.0000 C   0  0  0  0  0  0  0  0  0  0  0  0
    7.3468   -9.0324    0.0000 C   0  0  0  0  0  0  0  0  0  0  0  0
    6.6357   -9.4438    0.0000 C   0  0  0  0  0  0  0  0  0  0  0  0
   12.3411   -5.3029    0.0000 O   0  0  0  0  0  0  0  0  0  0  0  0
    7.8297  -10.8600    0.0000 C   0  0  0  0  0  0  0  0  0  0  0  0
   10.1901   -7.3803    0.0000 C   0  0  0  0  0  0  0  0  0  0  0  0
    8.0614   -9.4418    0.0000 O   0  0  0  0  0  0  0  0  0  0  0  0
    8.2466  -10.1474    0.0000 O   0  0  0  0  0  0  0  0  0  0  0  0
   11.6282   -8.2041    0.0000 C   0  0  2  0  0  0  0  0  0  0  0  0
   10.9074   -6.9610    0.0000 C   0  0  2  0  0  0  0  0  0  0  0  0
   13.7685   -9.4416    0.0000 C   0  0  0  0  0  0  0  0  0  0  0  0
    9.8929  -10.1526    0.0000 C   0  0  0  0  0  0  0  0  0  0  0  0
    7.3456   -8.2074    0.0000 O   0  0  0  0  0  0  0  0  0  0  0  0
   10.9132   -9.4375    0.0000 C   0  0  0  0  0  0  0  0  0  0  0  0
   15.1892   -9.4392    0.0000 C   0  0  0  0  0  0  0  0  0  0  0  0
   14.4754  -10.6823    0.0000 C   0  0  0  0  0  0  0  0  0  0  0  0
    7.8269  -12.2870    0.0000 C   0  0  0  0  0  0  0  0  0  0  0  0
    8.2385  -13.0017    0.0000 C   0  0  0  0  0  0  0  0  0  0  0  0
    9.0649  -13.0027    0.0000 C   0  0  0  0  0  0  0  0  0  0  0  0
    9.4781  -12.2830    0.0000 C   0  0  0  0  0  0  0  0  0  0  0  0
    9.0641  -11.5713    0.0000 C   0  0  0  0  0  0  0  0  0  0  0  0
 13 49  2  0  0  0  0
 33 12  1  0  0  0  0
  6 23  2  0  0  0  0
 31 44  1  0  0  0  0
 14  5  1  0  0  0  0
 25 12  2  0  0  0  0
 21 47  1  0  0  0  0
 29 24  1  0  0  0  0
  1 16  1  0  0  0  0
 18 41  1  0  0  0  0
 49 34  1  0  0  0  0
 26 22  1  0  0  0  0
 48 19  1  0  0  0  0
  1 45  1  1  0  0  0
 24 28  2  0  0  0  0
 16 26  1  0  0  0  0
  8 47  1  1  0  0  0
  9 22  1  0  0  0  0
 44 13  1  0  0  0  0
 41 38  1  0  0  0  0
 16 40  1  1  0  0  0
 21 15  1  1  0  0  0
 17 43  1  1  0  0  0
  2 14  1  0  0  0  0
 38  7  2  0  0  0  0
  8  1  1  0  0  0  0
 40 35  1  0  0  0  0
 42 33  1  0  0  0  0
 43 25  1  0  0  0  0
  1 18  1  6  0  0  0
  3 14  2  0  0  0  0
 12 20  1  0  0  0  0
 35 46  2  0  0  0  0
  9  8  1  0  0  0  0
 38 30  1  0  0  0  0
 42 32  1  1  0  0  0
 27 11  3  0  0  0  0
 28  3  1  0  0  0  0
  5 29  2  0  0  0  0
 20  2  2  0  0  0  0
 19 44  2  0  0  0  0
 15 31  1  0  0  0  0
 35 36  1  0  0  0  0
 17 42  1  0  0  0  0
 25  6  1  0  0  0  0
  2 37  1  0  0  0  0
 42 21  1  0  0  0  0
 34 27  1  0  0  0  0
 37  6  1  0  0  0  0
 31 10  2  0  0  0  0
 34 48  2  0  0  0  0
 43  4  1  1  0  0  0
 17  9  1  0  0  0  0
  9 39  1  1  0  0  0
 30 50  2  0  0  0  0
 50 51  1  0  0  0  0
 51 52  2  0  0  0  0
 52 53  1  0  0  0  0
 53 54  2  0  0  0  0
 54 30  1  0  0  0  0
M  END
> <From>
www.bindingDB.org

> <BindingDB Reactant_set_id>
51061797

> <Ligand InChI>
InChI=1S/C42H40N2O10/c1-24(45)51-32-16-17-40(2)31(41(32,3)23-50-37(47)26-9-6-5-7-10-26)20-33(53-38(48)27-14-12-25(21-43)13-15-27)42(4)36(40)35(46)34-30(54-42)19-29(52-39(34)49)28-11-8-18-44-22-28/h5-15,18-19,22,31-33,35-36,46H,16-17,20,23H2,1-4H3/t31-,32+,33+,35+,36-,40+,41+,42-/m1/s1

> <Ligand InChI Key>
ZEECICMMDUHSOU-XPZAPRPFSA-N

> <BindingDB MonomerID>
50433204

> <BindingDB Ligand Name>
CHEMBL2375692

> <Target Name>
Sterol O-acyltransferase 2

> <Target Source Organism According to Curator or DataSource>


> <Ki (nM)>


> <IC50 (nM)>
 619

> <Kd (nM)>


> <EC50 (nM)>


> <kon (M-1-s-1)>


> <koff (s-1)>


> <pH>


> <Temp (C)>


> <Curation/DataSource>
ChEMBL

> <Article DOI>
10.1016/j.bmcl.2013.02.088

> <BindingDB Entry DOI>
10.7270/Q20866P3

> <PMID>
23535327

> <PubChem AID>


> <Patent Number>


> <Authors>
Ohtawa, M; Yamazaki, H; Matsuda, D; Ohshiro, T; Rudel, LL; Omura, S; Tomoda, H; Nagamitsu, T

> <Institution>
Kitasato University

> <Link to Ligand in BindingDB>
http://www.bindingdb.org/bind/chemsearch/marvin/MolStructure.jsp?monomerid=50433204

> <Link to Target in BindingDB>
http://www.bindingdb.org/jsp/dbsearch/PrimarySearch_ki.jsp?energyterm=kJ/mole&tag=pol&polymerid=7773&target=Sterol+O-acyltransferase+2&column=ki&startPg=0&Increment=50&submit=Search

> <Link to Ligand-Target Pair in BindingDB>
http://www.bindingdb.org/jsp/dbsearch/PrimarySearch_ki.jsp?energyterm=kJ/mole&tag=r21&monomerid=50433204&enzyme=Sterol+O-acyltransferase+2&column=ki&startPg=0&Increment=50&submit=Search

> <Ligand HET ID in PDB>


> <PDB ID(s) for Ligand-Target Complex>


> <PubChem CID>
73351887

> <PubChem SID>
175445521

> <ChEBI ID of Ligand>


> <ChEMBL ID of Ligand>
CHEMBL2375692

> <DrugBank ID of Ligand>


> <IUPHAR_GRAC ID of Ligand>


> <KEGG ID of Ligand>


> <ZINC ID of Ligand>
ZINC96258619

> <Number of Protein Chains in Target (>1 implies a multichain complex)>
1

> <BindingDB Target Chain Sequence>
MEPGGARLRLQRTEGLGGERERQPCGDGNTETHRAPDLVQWTRHMEAVKAQLLEQAQGQLRELLDRAMREAIQSYPSQDKPLPPPPPGSLSRTQEPSLGKQKVFIIRKSLLDELMEVQHFRTIYHMFIAGLCVFIISTLAIDFIDEGRLLLEFDLLIFSFGQLPLALVTWVPMFLSTLLAPYQALRLWARGTWTQATGLGCALLAAHAVVLCALPVHVAVEHQLPPASRCVLVFEQVRFLMKSYSFLREAVPGTLRARRGEGIQAPSFSSYLYFLFCPTLIYRETYPRTPYVRWNYVAKNFAQALGCVLYACFILGRLCVPVFANMSREPFSTRALVLSILHATLPGIFMLLLIFFAFLHCWLNAFAEMLRFGDRMFYRDWWNSTSFSNYYRTWNVVVHDWLYSYVYQDGLRLLGARARGVAMLGVFLVSAVAHEYIFCFVLGFFYPVMLILFLVIGGMLNFMMHDQRTGPAWNVLMWTMLFLGQGIQVSLYCQEWYARRHCPLPQATFWGLVTPRSWSCHT

> <PDB ID(s) of Target Chain>


> <UniProt (SwissProt) Recommended Name of Target Chain>
Sterol O-acyltransferase 2

> <UniProt (SwissProt) Entry Name of Target Chain>
ACAT-2

> <UniProt (SwissProt) Primary ID of Target Chain>
O75908

> <UniProt (SwissProt) Secondary ID(s) of Target Chain>
F5H7W4 I6L9H9 Q4VB99 Q4VBA1 Q96TD4 Q9UNR2

> <UniProt (SwissProt) Alternative ID(s) of Target Chain>


> <UniProt (TrEMBL) Submitted Name of Target Chain>


> <UniProt (TrEMBL) Entry Name of Target Chain>


> <UniProt (TrEMBL) Primary ID of Target Chain>


> <UniProt (TrEMBL) Secondary ID(s) of Target Chain>


> <UniProt (TrEMBL) Alternative ID(s) of Target Chain>


$$$$

  Mrv0541 11211416152D          

 42 46  0  0  0  0            999 V2000
    1.3321   -0.8938    0.0000 C   0  0  0  0  0  0  0  0  0  0  0  0
    0.5071    0.5285    0.0000 C   0  0  0  0  0  0  0  0  0  0  0  0
    0.0946   -0.1848    0.0000 C   0  0  0  0  0  0  0  0  0  0  0  0
   -0.7304   -0.1848    0.0000 C   0  0  0  0  0  0  0  0  0  0  0  0
    1.7446   -0.1848    0.0000 C   0  0  0  0  0  0  0  0  0  0  0  0
    0.5071   -0.8938    0.0000 C   0  0  0  0  0  0  0  0  0  0  0  0
   -1.1429    0.5285    0.0000 C   0  0  0  0  0  0  0  0  0  0  0  0
    1.7446   -1.6157    0.0000 C   0  0  0  0  0  0  0  0  0  0  0  0
    0.0946    1.2461    0.0000 C   0  0  0  0  0  0  0  0  0  0  0  0
    1.3321    0.5285    0.0000 O   0  0  0  0  0  0  0  0  0  0  0  0
   -1.9679    0.5285    0.0000 C   0  0  0  0  0  0  0  0  0  0  0  0
   -0.7304    1.2461    0.0000 C   0  0  0  0  0  0  0  0  0  0  0  0
    2.5696   -0.1848    0.0000 C   0  0  0  0  0  0  0  0  0  0  0  0
    2.5696   -1.6157    0.0000 O   0  0  0  0  0  0  0  0  0  0  0  0
    2.9821   -0.8938    0.0000 C   0  0  0  0  0  0  0  0  0  0  0  0
   -2.3804   -0.1848    0.0000 C   0  0  0  0  0  0  0  0  0  0  0  0
   -1.1429   -0.8938    0.0000 C   0  0  0  0  0  0  0  0  0  0  0  0
    0.5071    1.9679    0.0000 O   0  0  0  0  0  0  0  0  0  0  0  0
   -2.7414    0.8121    0.0000 C   0  0  0  0  0  0  0  0  0  0  0  0
   -3.2054   -0.1848    0.0000 O   0  0  0  0  0  0  0  0  0  0  0  0
    0.0946    2.6769    0.0000 C   0  0  0  0  0  0  0  0  0  0  0  0
   -3.6179   -0.8938    0.0000 C   0  0  0  0  0  0  0  0  0  0  0  0
    1.3321   -2.3246    0.0000 O   0  0  0  0  0  0  0  0  0  0  0  0
    3.8071   -0.8938    0.0000 C   0  0  0  0  0  0  0  0  0  0  0  0
   -4.1593    0.5672    0.0000 C   0  0  0  0  0  0  0  0  0  0  0  0
   -1.9679   -0.8938    0.0000 C   0  0  0  0  0  0  0  0  0  0  0  0
   -3.3859    0.2836    0.0000 O   0  0  0  0  0  0  0  0  0  0  0  0
    0.0946   -1.6157    0.0000 O   0  0  0  0  0  0  0  0  0  0  0  0
    5.0446   -1.6157    0.0000 N   0  0  0  0  0  0  0  0  0  0  0  0
    0.5071    3.3988    0.0000 O   0  0  0  0  0  0  0  0  0  0  0  0
   -4.4429   -0.8938    0.0000 O   0  0  0  0  0  0  0  0  0  0  0  0
   -4.7910    0.0343    0.0000 O   0  0  0  0  0  0  0  0  0  0  0  0
    0.6489    1.3492    0.0000 C   0  0  0  0  0  0  0  0  0  0  0  0
   -0.2277    0.5285    0.0000 C   0  0  0  0  0  0  0  0  0  0  0  0
   -1.8261    1.3492    0.0000 C   0  0  0  0  0  0  0  0  0  0  0  0
    4.2196   -1.6157    0.0000 C   0  0  0  0  0  0  0  0  0  0  0  0
    4.2196   -0.1848    0.0000 C   0  0  0  0  0  0  0  0  0  0  0  0
   -0.7304    2.6769    0.0000 C   0  0  0  0  0  0  0  0  0  0  0  0
   -3.2054   -1.6157    0.0000 C   0  0  0  0  0  0  0  0  0  0  0  0
   -4.3011    1.3793    0.0000 C   0  0  0  0  0  0  0  0  0  0  0  0
    5.4571   -0.8938    0.0000 C   0  0  0  0  0  0  0  0  0  0  0  0
    5.0446   -0.1848    0.0000 C   0  0  0  0  0  0  0  0  0  0  0  0
  2  3  1  0  0  0  0
  3  6  1  0  0  0  0
  4  3  1  0  0  0  0
  5  1  2  0  0  0  0
  6  1  1  0  0  0  0
  7  4  1  0  0  0  0
  8  1  1  0  0  0  0
  9  2  1  0  0  0  0
 10  5  1  0  0  0  0
 11  7  1  0  0  0  0
 12  7  1  0  0  0  0
 13  5  1  0  0  0  0
 14  8  1  0  0  0  0
 15 14  1  0  0  0  0
 16 26  1  0  0  0  0
 17  4  1  0  0  0  0
 18  9  1  0  0  0  0
 19 11  1  0  0  0  0
 20 16  1  0  0  0  0
 21 18  1  0  0  0  0
 22 20  1  0  0  0  0
 23  8  2  0  0  0  0
 24 15  1  0  0  0  0
 25 27  1  0  0  0  0
 26 17  1  0  0  0  0
 27 19  1  0  0  0  0
 28  6  2  0  0  0  0
 29 36  1  0  0  0  0
 30 21  2  0  0  0  0
 31 22  2  0  0  0  0
 32 25  2  0  0  0  0
 33  2  1  0  0  0  0
 34  4  1  0  0  0  0
 35 11  1  0  0  0  0
 36 24  2  0  0  0  0
 37 24  1  0  0  0  0
 38 21  1  0  0  0  0
 39 22  1  0  0  0  0
 40 25  1  0  0  0  0
 41 42  1  0  0  0  0
 42 37  2  0  0  0  0
  2 10  1  0  0  0  0
 15 13  1  0  0  0  0
  9 12  2  0  0  0  0
 16 11  1  0  0  0  0
 41 29  2  0  0  0  0
M  END
> <From>
www.bindingDB.org

> <BindingDB Reactant_set_id>
50290219

> <Ligand InChI>
InChI=1S/C31H35NO10/c1-16(33)38-15-30(5)22-13-24(40-18(3)35)31(6)27(29(22,4)10-9-23(30)39-17(2)34)26(36)25-21(42-31)12-20(41-28(25)37)19-8-7-11-32-14-19/h7-8,11,13-14,20,22-23,27H,9-10,12,15H2,1-6H3

> <Ligand InChI Key>
YYASCVQZXHMNRN-UHFFFAOYSA-N

> <BindingDB MonomerID>
50150482

> <BindingDB Ligand Name>
Acetic acid 3-acetoxy-4-acetoxymethyl-12-hydroxy-4,6a,12b-trimethyl-11-oxo-9-pyridin-3-yl-1,3,4,4a,6a,11,12a,12b-octahydro-2H,9H-7,10-dioxa-benzo[a]anthracen-6-yl ester::CHEMBL179229

> <Target Name>
Sterol O-acyltransferase 2

> <Target Source Organism According to Curator or DataSource>


> <Ki (nM)>


> <IC50 (nM)>
 640

> <Kd (nM)>


> <EC50 (nM)>


> <kon (M-1-s-1)>


> <koff (s-1)>


> <pH>


> <Temp (C)>


> <Curation/DataSource>
ChEMBL

> <Article DOI>
10.1016/j.bmcl.2004.10.066

> <BindingDB Entry DOI>
10.7270/Q2VQ3268

> <PMID>
15603959

> <PubChem AID>


> <Patent Number>


> <Authors>
Jeong, TS; Kim, KS; Yu, H; Kim, MJ; Cho, KH; Choi, YK; Kim, HC; Park, HY; Lee, WS

> <Institution>
Korea Research Institute of Bioscience and Biotechnology

> <Link to Ligand in BindingDB>
http://www.bindingdb.org/bind/chemsearch/marvin/MolStructure.jsp?monomerid=50150482

> <Link to Target in BindingDB>
http://www.bindingdb.org/jsp/dbsearch/PrimarySearch_ki.jsp?energyterm=kJ/mole&tag=pol&polymerid=7773&target=Sterol+O-acyltransferase+2&column=ki&startPg=0&Increment=50&submit=Search

> <Link to Ligand-Target Pair in BindingDB>
http://www.bindingdb.org/jsp/dbsearch/PrimarySearch_ki.jsp?energyterm=kJ/mole&tag=r21&monomerid=50150482&enzyme=Sterol+O-acyltransferase+2&column=ki&startPg=0&Increment=50&submit=Search

> <Ligand HET ID in PDB>


> <PDB ID(s) for Ligand-Target Complex>


> <PubChem CID>
91933028

> <PubChem SID>
104038907

> <ChEBI ID of Ligand>


> <ChEMBL ID of Ligand>
CHEMBL179229

> <DrugBank ID of Ligand>


> <IUPHAR_GRAC ID of Ligand>


> <KEGG ID of Ligand>


> <ZINC ID of Ligand>
ZINC55652540

> <Number of Protein Chains in Target (>1 implies a multichain complex)>
1

> <BindingDB Target Chain Sequence>
MEPGGARLRLQRTEGLGGERERQPCGDGNTETHRAPDLVQWTRHMEAVKAQLLEQAQGQLRELLDRAMREAIQSYPSQDKPLPPPPPGSLSRTQEPSLGKQKVFIIRKSLLDELMEVQHFRTIYHMFIAGLCVFIISTLAIDFIDEGRLLLEFDLLIFSFGQLPLALVTWVPMFLSTLLAPYQALRLWARGTWTQATGLGCALLAAHAVVLCALPVHVAVEHQLPPASRCVLVFEQVRFLMKSYSFLREAVPGTLRARRGEGIQAPSFSSYLYFLFCPTLIYRETYPRTPYVRWNYVAKNFAQALGCVLYACFILGRLCVPVFANMSREPFSTRALVLSILHATLPGIFMLLLIFFAFLHCWLNAFAEMLRFGDRMFYRDWWNSTSFSNYYRTWNVVVHDWLYSYVYQDGLRLLGARARGVAMLGVFLVSAVAHEYIFCFVLGFFYPVMLILFLVIGGMLNFMMHDQRTGPAWNVLMWTMLFLGQGIQVSLYCQEWYARRHCPLPQATFWGLVTPRSWSCHT

> <PDB ID(s) of Target Chain>


> <UniProt (SwissProt) Recommended Name of Target Chain>
Sterol O-acyltransferase 2

> <UniProt (SwissProt) Entry Name of Target Chain>
ACAT-2

> <UniProt (SwissProt) Primary ID of Target Chain>
O75908

> <UniProt (SwissProt) Secondary ID(s) of Target Chain>
F5H7W4 I6L9H9 Q4VB99 Q4VBA1 Q96TD4 Q9UNR2

> <UniProt (SwissProt) Alternative ID(s) of Target Chain>


> <UniProt (TrEMBL) Submitted Name of Target Chain>


> <UniProt (TrEMBL) Entry Name of Target Chain>


> <UniProt (TrEMBL) Primary ID of Target Chain>


> <UniProt (TrEMBL) Secondary ID(s) of Target Chain>


> <UniProt (TrEMBL) Alternative ID(s) of Target Chain>


$$$$

  Mrv0541 11241417312D          

 48 53  0  0  0  0            999 V2000
   12.8001   -7.0501    0.0000 C   0  0  0  0  0  0  0  0  0  0  0  0
   12.3918   -6.3375    0.0000 C   0  0  1  0  0  0  0  0  0  0  0  0
   11.9789   -7.0475    0.0000 C   0  0  0  0  0  0  0  0  0  0  0  0
   11.6834   -5.1043    0.0000 C   0  0  0  0  0  0  0  0  0  0  0  0
   11.6834   -5.9292    0.0000 C   0  0  2  0  0  0  0  0  0  0  0  0
   12.3954   -4.6875    0.0000 C   0  0  0  0  0  0  0  0  0  0  0  0
   13.1075   -5.1043    0.0000 C   0  0  1  0  0  0  0  0  0  0  0  0
   13.1085   -5.9292    0.0000 C   0  0  1  0  0  0  0  0  0  0  0  0
   13.8196   -6.3386    0.0000 C   0  0  0  0  0  0  0  0  0  0  0  0
   14.5342   -5.9274    0.0000 C   0  0  1  0  0  0  0  0  0  0  0  0
   13.8175   -4.6885    0.0000 C   0  0  2  0  0  0  0  0  0  0  0  0
   14.5350   -5.1030    0.0000 C   0  0  2  0  0  0  0  0  0  0  0  0
   15.2489   -4.6911    0.0000 O   0  0  0  0  0  0  0  0  0  0  0  0
   13.8138   -3.8621    0.0000 C   0  0  2  0  0  0  0  0  0  0  0  0
   14.5338   -3.4486    0.0000 C   0  0  0  0  0  0  0  0  0  0  0  0
   15.2563   -3.8623    0.0000 C   0  0  0  0  0  0  0  0  0  0  0  0
   15.9719   -3.4456    0.0000 C   0  0  0  0  0  0  0  0  0  0  0  0
   15.9712   -2.6136    0.0000 C   0  0  0  0  0  0  0  0  0  0  0  0
   15.2486   -2.1999    0.0000 O   0  0  0  0  0  0  0  0  0  0  0  0
   14.5267   -2.6183    0.0000 C   0  0  0  0  0  0  0  0  0  0  0  0
   16.6839   -2.2020    0.0000 C   0  0  0  0  0  0  0  0  0  0  0  0
   17.3996   -2.6146    0.0000 C   0  0  0  0  0  0  0  0  0  0  0  0
   18.1126   -2.2012    0.0000 N   0  0  0  0  0  0  0  0  0  0  0  0
   18.1112   -1.3752    0.0000 C   0  0  0  0  0  0  0  0  0  0  0  0
   17.3907   -0.9688    0.0000 C   0  0  0  0  0  0  0  0  0  0  0  0
   16.6806   -1.3804    0.0000 C   0  0  0  0  0  0  0  0  0  0  0  0
   15.2481   -6.3408    0.0000 O   0  0  0  0  0  0  0  0  0  0  0  0
   15.9631   -5.9292    0.0000 C   0  0  0  0  0  0  0  0  0  0  0  0
   16.6771   -6.3426    0.0000 C   0  0  0  0  0  0  0  0  0  0  0  0
   15.9642   -5.1043    0.0000 O   0  0  0  0  0  0  0  0  0  0  0  0
   13.8101   -2.2094    0.0000 O   0  0  0  0  0  0  0  0  0  0  0  0
   13.0988   -3.4504    0.0000 O   0  0  0  0  0  0  0  0  0  0  0  0
   13.1001   -4.2792    0.0000 C   0  0  0  0  0  0  0  0  0  0  0  0
   14.5293   -4.2750    0.0000 C   0  0  0  0  0  0  0  0  0  0  0  0
   10.9695   -6.3428    0.0000 O   0  0  0  0  0  0  0  0  0  0  0  0
   10.2545   -5.9313    0.0000 C   0  0  0  0  0  0  0  0  0  0  0  0
    9.5429   -6.3448    0.0000 C   0  0  0  0  0  0  0  0  0  0  0  0
   10.2532   -5.1063    0.0000 O   0  0  0  0  0  0  0  0  0  0  0  0
   16.6714   -7.1678    0.0000 C   0  0  0  0  0  0  0  0  0  0  0  0
   17.3844   -7.5811    0.0000 C   0  0  0  0  0  0  0  0  0  0  0  0
   18.1004   -7.1695    0.0000 C   0  0  0  0  0  0  0  0  0  0  0  0
   18.0989   -6.3402    0.0000 C   0  0  0  0  0  0  0  0  0  0  0  0
   17.3851   -5.9306    0.0000 C   0  0  0  0  0  0  0  0  0  0  0  0
   18.8143   -7.5781    0.0000 C   0  0  0  0  0  0  0  0  0  0  0  0
   19.5288   -7.9906    0.0000 N   0  0  0  0  0  0  0  0  0  0  0  0
   11.1539   -7.0448    0.0000 O   0  0  0  0  0  0  0  0  0  0  0  0
   12.3891   -7.7633    0.0000 O   0  0  0  0  0  0  0  0  0  0  0  0
   11.9744   -8.4764    0.0000 C   0  0  0  0  0  0  0  0  0  0  0  0
  2  1  1  1  0  0  0
  2  3  1  6  0  0  0
  5  4  1  0  0  0  0
  4  6  1  0  0  0  0
  2  5  1  0  0  0  0
  8  2  1  0  0  0  0
  7  6  1  0  0  0  0
  7  8  1  0  0  0  0
 11  7  1  1  0  0  0
  8  9  1  1  0  0  0
 10  9  1  0  0  0  0
 12 10  1  0  0  0  0
 11 12  1  0  0  0  0
 11 14  1  0  0  0  0
 12 13  1  0  0  0  0
 13 16  1  0  0  0  0
 14 15  1  0  0  0  0
 15 16  2  0  0  0  0
 15 20  1  0  0  0  0
 16 17  1  0  0  0  0
 17 18  2  0  0  0  0
 18 19  1  0  0  0  0
 19 20  1  0  0  0  0
 21 22  2  0  0  0  0
 22 23  1  0  0  0  0
 23 24  2  0  0  0  0
 24 25  1  0  0  0  0
 25 26  2  0  0  0  0
 26 21  1  0  0  0  0
 18 21  1  0  0  0  0
 10 27  1  1  0  0  0
 27 28  1  0  0  0  0
 28 29  1  0  0  0  0
 28 30  2  0  0  0  0
 20 31  2  0  0  0  0
 14 32  1  1  0  0  0
  7 33  1  1  0  0  0
 12 34  1  1  0  0  0
  5 35  1  1  0  0  0
 35 36  1  0  0  0  0
 36 37  1  0  0  0  0
 36 38  2  0  0  0  0
 29 39  2  0  0  0  0
 39 40  1  0  0  0  0
 40 41  2  0  0  0  0
 41 42  1  0  0  0  0
 42 43  2  0  0  0  0
 43 29  1  0  0  0  0
 44 45  3  0  0  0  0
 41 44  1  0  0  0  0
  3 46  2  0  0  0  0
  3 47  1  0  0  0  0
 47 48  1  0  0  0  0
M  END
> <From>
www.bindingDB.org

> <BindingDB Reactant_set_id>
51061796

> <Ligand InChI>
InChI=1S/C36H36N2O10/c1-19(39)45-26-12-13-34(2)25(35(26,3)33(43)44-5)16-27(47-31(41)21-10-8-20(17-37)9-11-21)36(4)30(34)29(40)28-24(48-36)15-23(46-32(28)42)22-7-6-14-38-18-22/h6-11,14-15,18,25-27,29-30,40H,12-13,16H2,1-5H3/t25-,26+,27+,29+,30-,34+,35+,36-/m1/s1

> <Ligand InChI Key>
POGNFPWKPIMOBK-KKGKHKOLSA-N

> <BindingDB MonomerID>
50433203

> <BindingDB Ligand Name>
CHEMBL2375700

> <Target Name>
Sterol O-acyltransferase 2

> <Target Source Organism According to Curator or DataSource>


> <Ki (nM)>


> <IC50 (nM)>
 650

> <Kd (nM)>


> <EC50 (nM)>


> <kon (M-1-s-1)>


> <koff (s-1)>


> <pH>


> <Temp (C)>


> <Curation/DataSource>
ChEMBL

> <Article DOI>
10.1016/j.bmcl.2013.02.088

> <BindingDB Entry DOI>
10.7270/Q20866P3

> <PMID>
23535327

> <PubChem AID>


> <Patent Number>


> <Authors>
Ohtawa, M; Yamazaki, H; Matsuda, D; Ohshiro, T; Rudel, LL; Omura, S; Tomoda, H; Nagamitsu, T

> <Institution>
Kitasato University

> <Link to Ligand in BindingDB>
http://www.bindingdb.org/bind/chemsearch/marvin/MolStructure.jsp?monomerid=50433203

> <Link to Target in BindingDB>
http://www.bindingdb.org/jsp/dbsearch/PrimarySearch_ki.jsp?energyterm=kJ/mole&tag=pol&polymerid=7773&target=Sterol+O-acyltransferase+2&column=ki&startPg=0&Increment=50&submit=Search

> <Link to Ligand-Target Pair in BindingDB>
http://www.bindingdb.org/jsp/dbsearch/PrimarySearch_ki.jsp?energyterm=kJ/mole&tag=r21&monomerid=50433203&enzyme=Sterol+O-acyltransferase+2&column=ki&startPg=0&Increment=50&submit=Search

> <Ligand HET ID in PDB>


> <PDB ID(s) for Ligand-Target Complex>


> <PubChem CID>
71602862

> <PubChem SID>
175445520

> <ChEBI ID of Ligand>


> <ChEMBL ID of Ligand>
CHEMBL2375700

> <DrugBank ID of Ligand>


> <IUPHAR_GRAC ID of Ligand>


> <KEGG ID of Ligand>


> <ZINC ID of Ligand>
ZINC96258618

> <Number of Protein Chains in Target (>1 implies a multichain complex)>
1

> <BindingDB Target Chain Sequence>
MEPGGARLRLQRTEGLGGERERQPCGDGNTETHRAPDLVQWTRHMEAVKAQLLEQAQGQLRELLDRAMREAIQSYPSQDKPLPPPPPGSLSRTQEPSLGKQKVFIIRKSLLDELMEVQHFRTIYHMFIAGLCVFIISTLAIDFIDEGRLLLEFDLLIFSFGQLPLALVTWVPMFLSTLLAPYQALRLWARGTWTQATGLGCALLAAHAVVLCALPVHVAVEHQLPPASRCVLVFEQVRFLMKSYSFLREAVPGTLRARRGEGIQAPSFSSYLYFLFCPTLIYRETYPRTPYVRWNYVAKNFAQALGCVLYACFILGRLCVPVFANMSREPFSTRALVLSILHATLPGIFMLLLIFFAFLHCWLNAFAEMLRFGDRMFYRDWWNSTSFSNYYRTWNVVVHDWLYSYVYQDGLRLLGARARGVAMLGVFLVSAVAHEYIFCFVLGFFYPVMLILFLVIGGMLNFMMHDQRTGPAWNVLMWTMLFLGQGIQVSLYCQEWYARRHCPLPQATFWGLVTPRSWSCHT

> <PDB ID(s) of Target Chain>


> <UniProt (SwissProt) Recommended Name of Target Chain>
Sterol O-acyltransferase 2

> <UniProt (SwissProt) Entry Name of Target Chain>
ACAT-2

> <UniProt (SwissProt) Primary ID of Target Chain>
O75908

> <UniProt (SwissProt) Secondary ID(s) of Target Chain>
F5H7W4 I6L9H9 Q4VB99 Q4VBA1 Q96TD4 Q9UNR2

> <UniProt (SwissProt) Alternative ID(s) of Target Chain>


> <UniProt (TrEMBL) Submitted Name of Target Chain>


> <UniProt (TrEMBL) Entry Name of Target Chain>


> <UniProt (TrEMBL) Primary ID of Target Chain>


> <UniProt (TrEMBL) Secondary ID(s) of Target Chain>


> <UniProt (TrEMBL) Alternative ID(s) of Target Chain>


$$$$

  Mrv0541 11241417312D          

 57 62  0  0  0  0            999 V2000
   26.9747   -6.4416    0.0000 C   0  0  0  0  0  0  0  0  0  0  0  0
   26.5663   -5.7291    0.0000 C   0  0  1  0  0  0  0  0  0  0  0  0
   26.1534   -6.4390    0.0000 C   0  0  0  0  0  0  0  0  0  0  0  0
   25.8581   -4.4958    0.0000 C   0  0  0  0  0  0  0  0  0  0  0  0
   25.8581   -5.3208    0.0000 C   0  0  2  0  0  0  0  0  0  0  0  0
   26.5701   -4.0792    0.0000 C   0  0  0  0  0  0  0  0  0  0  0  0
   27.2820   -4.4958    0.0000 C   0  0  1  0  0  0  0  0  0  0  0  0
   27.2831   -5.3208    0.0000 C   0  0  1  0  0  0  0  0  0  0  0  0
   27.9941   -5.7301    0.0000 C   0  0  0  0  0  0  0  0  0  0  0  0
   28.7087   -5.3190    0.0000 C   0  0  1  0  0  0  0  0  0  0  0  0
   27.9920   -4.0801    0.0000 C   0  0  2  0  0  0  0  0  0  0  0  0
   28.7096   -4.4946    0.0000 C   0  0  2  0  0  0  0  0  0  0  0  0
   29.4234   -4.0828    0.0000 O   0  0  0  0  0  0  0  0  0  0  0  0
   27.9883   -3.2538    0.0000 C   0  0  2  0  0  0  0  0  0  0  0  0
   28.7083   -2.8403    0.0000 C   0  0  0  0  0  0  0  0  0  0  0  0
   29.4309   -3.2539    0.0000 C   0  0  0  0  0  0  0  0  0  0  0  0
   30.1464   -2.8372    0.0000 C   0  0  0  0  0  0  0  0  0  0  0  0
   30.1457   -2.0053    0.0000 C   0  0  0  0  0  0  0  0  0  0  0  0
   29.4231   -1.5915    0.0000 O   0  0  0  0  0  0  0  0  0  0  0  0
   28.7013   -2.0099    0.0000 C   0  0  0  0  0  0  0  0  0  0  0  0
   30.8583   -1.5937    0.0000 C   0  0  0  0  0  0  0  0  0  0  0  0
   31.5740   -2.0062    0.0000 C   0  0  0  0  0  0  0  0  0  0  0  0
   32.2870   -1.5928    0.0000 N   0  0  0  0  0  0  0  0  0  0  0  0
   32.2856   -0.7668    0.0000 C   0  0  0  0  0  0  0  0  0  0  0  0
   31.5652   -0.3604    0.0000 C   0  0  0  0  0  0  0  0  0  0  0  0
   30.8551   -0.7720    0.0000 C   0  0  0  0  0  0  0  0  0  0  0  0
   29.4227   -5.7324    0.0000 O   0  0  0  0  0  0  0  0  0  0  0  0
   30.1376   -5.3208    0.0000 C   0  0  0  0  0  0  0  0  0  0  0  0
   30.8516   -5.7342    0.0000 C   0  0  0  0  0  0  0  0  0  0  0  0
   30.1386   -4.4958    0.0000 O   0  0  0  0  0  0  0  0  0  0  0  0
   30.8458   -6.5593    0.0000 C   0  0  0  0  0  0  0  0  0  0  0  0
   31.5589   -6.9726    0.0000 C   0  0  0  0  0  0  0  0  0  0  0  0
   32.2749   -6.5610    0.0000 C   0  0  0  0  0  0  0  0  0  0  0  0
   32.2733   -5.7318    0.0000 C   0  0  0  0  0  0  0  0  0  0  0  0
   31.5597   -5.3221    0.0000 C   0  0  0  0  0  0  0  0  0  0  0  0
   32.9888   -6.9697    0.0000 C   0  0  0  0  0  0  0  0  0  0  0  0
   33.7032   -7.3821    0.0000 N   0  0  0  0  0  0  0  0  0  0  0  0
   27.9848   -1.6010    0.0000 O   0  0  0  0  0  0  0  0  0  0  0  0
   27.2733   -2.8421    0.0000 O   0  0  0  0  0  0  0  0  0  0  0  0
   27.2746   -3.6708    0.0000 C   0  0  0  0  0  0  0  0  0  0  0  0
   28.7039   -3.6667    0.0000 C   0  0  0  0  0  0  0  0  0  0  0  0
   25.1442   -5.7343    0.0000 O   0  0  0  0  0  0  0  0  0  0  0  0
   24.4291   -5.3228    0.0000 C   0  0  0  0  0  0  0  0  0  0  0  0
   23.7175   -5.7363    0.0000 C   0  0  0  0  0  0  0  0  0  0  0  0
   24.4279   -4.4978    0.0000 O   0  0  0  0  0  0  0  0  0  0  0  0
   25.3285   -6.4363    0.0000 O   0  0  0  0  0  0  0  0  0  0  0  0
   24.9137   -7.1495    0.0000 C   0  0  0  0  0  0  0  0  0  0  0  0
   24.0887   -7.1469    0.0000 O   0  0  0  0  0  0  0  0  0  0  0  0
   25.3239   -7.8653    0.0000 C   0  0  0  0  0  0  0  0  0  0  0  0
   23.0020   -5.3259    0.0000 C   0  0  0  0  0  0  0  0  0  0  0  0
   22.9995   -4.5010    0.0000 C   0  0  0  0  0  0  0  0  0  0  0  0
   23.7129   -4.0864    0.0000 C   0  0  0  0  0  0  0  0  0  0  0  0
   23.7105   -3.2614    0.0000 C   0  0  0  0  0  0  0  0  0  0  0  0
   26.1489   -7.8679    0.0000 C   0  0  0  0  0  0  0  0  0  0  0  0
   26.5592   -8.5836    0.0000 C   0  0  0  0  0  0  0  0  0  0  0  0
   27.3841   -8.5863    0.0000 C   0  0  0  0  0  0  0  0  0  0  0  0
   27.7989   -7.8731    0.0000 C   0  0  0  0  0  0  0  0  0  0  0  0
  2  1  1  1  0  0  0
  2  3  1  6  0  0  0
  5  4  1  0  0  0  0
  4  6  1  0  0  0  0
  2  5  1  0  0  0  0
  8  2  1  0  0  0  0
  7  6  1  0  0  0  0
  7  8  1  0  0  0  0
 11  7  1  1  0  0  0
  8  9  1  1  0  0  0
 10  9  1  0  0  0  0
 12 10  1  0  0  0  0
 11 12  1  0  0  0  0
 11 14  1  0  0  0  0
 12 13  1  0  0  0  0
 13 16  1  0  0  0  0
 14 15  1  0  0  0  0
 15 16  2  0  0  0  0
 15 20  1  0  0  0  0
 16 17  1  0  0  0  0
 17 18  2  0  0  0  0
 18 19  1  0  0  0  0
 19 20  1  0  0  0  0
 21 22  2  0  0  0  0
 22 23  1  0  0  0  0
 23 24  2  0  0  0  0
 24 25  1  0  0  0  0
 25 26  2  0  0  0  0
 26 21  1  0  0  0  0
 18 21  1  0  0  0  0
 10 27  1  1  0  0  0
 27 28  1  0  0  0  0
 28 29  1  0  0  0  0
 28 30  2  0  0  0  0
 29 31  2  0  0  0  0
 31 32  1  0  0  0  0
 32 33  2  0  0  0  0
 33 34  1  0  0  0  0
 34 35  2  0  0  0  0
 35 29  1  0  0  0  0
 36 37  3  0  0  0  0
 33 36  1  0  0  0  0
 20 38  2  0  0  0  0
 14 39  1  1  0  0  0
  7 40  1  1  0  0  0
 12 41  1  1  0  0  0
  5 42  1  1  0  0  0
 42 43  1  0  0  0  0
 43 44  1  0  0  0  0
 43 45  2  0  0  0  0
  3 46  1  0  0  0  0
 46 47  1  0  0  0  0
 47 48  2  0  0  0  0
 47 49  1  0  0  0  0
 44 50  1  0  0  0  0
 50 51  1  0  0  0  0
 51 52  1  0  0  0  0
 52 53  1  0  0  0  0
 49 54  1  0  0  0  0
 54 55  1  0  0  0  0
 55 56  1  0  0  0  0
 56 57  1  0  0  0  0
M  END
> <From>
www.bindingDB.org

> <BindingDB Reactant_set_id>
51061795

> <Ligand InChI>
InChI=1S/C45H54N2O10/c1-6-8-10-14-36(48)53-27-44(4)33-24-35(56-41(51)29-18-16-28(25-46)17-19-29)45(5)40(43(33,3)21-20-34(44)55-37(49)15-11-9-7-2)39(50)38-32(57-45)23-31(54-42(38)52)30-13-12-22-47-26-30/h12-13,16-19,22-23,26,33-35,39-40,50H,6-11,14-15,20-21,24,27H2,1-5H3/t33-,34+,35+,39+,40-,43+,44+,45-/m1/s1

> <Ligand InChI Key>
PHKZYQXWQLVHMJ-DOLRMFLESA-N

> <BindingDB MonomerID>
50433202

> <BindingDB Ligand Name>
CHEMBL2375703

> <Target Name>
Sterol O-acyltransferase 2

> <Target Source Organism According to Curator or DataSource>


> <Ki (nM)>


> <IC50 (nM)>
 670

> <Kd (nM)>


> <EC50 (nM)>


> <kon (M-1-s-1)>


> <koff (s-1)>


> <pH>


> <Temp (C)>


> <Curation/DataSource>
ChEMBL

> <Article DOI>
10.1016/j.bmcl.2013.02.088

> <BindingDB Entry DOI>
10.7270/Q20866P3

> <PMID>
23535327

> <PubChem AID>


> <Patent Number>


> <Authors>
Ohtawa, M; Yamazaki, H; Matsuda, D; Ohshiro, T; Rudel, LL; Omura, S; Tomoda, H; Nagamitsu, T

> <Institution>
Kitasato University

> <Link to Ligand in BindingDB>
http://www.bindingdb.org/bind/chemsearch/marvin/MolStructure.jsp?monomerid=50433202

> <Link to Target in BindingDB>
http://www.bindingdb.org/jsp/dbsearch/PrimarySearch_ki.jsp?energyterm=kJ/mole&tag=pol&polymerid=7773&target=Sterol+O-acyltransferase+2&column=ki&startPg=0&Increment=50&submit=Search

> <Link to Ligand-Target Pair in BindingDB>
http://www.bindingdb.org/jsp/dbsearch/PrimarySearch_ki.jsp?energyterm=kJ/mole&tag=r21&monomerid=50433202&enzyme=Sterol+O-acyltransferase+2&column=ki&startPg=0&Increment=50&submit=Search

> <Ligand HET ID in PDB>


> <PDB ID(s) for Ligand-Target Complex>


> <PubChem CID>
71602667

> <PubChem SID>
175445519

> <ChEBI ID of Ligand>


> <ChEMBL ID of Ligand>
CHEMBL2375703

> <DrugBank ID of Ligand>


> <IUPHAR_GRAC ID of Ligand>


> <KEGG ID of Ligand>


> <ZINC ID of Ligand>
ZINC96258616

> <Number of Protein Chains in Target (>1 implies a multichain complex)>
1

> <BindingDB Target Chain Sequence>
MEPGGARLRLQRTEGLGGERERQPCGDGNTETHRAPDLVQWTRHMEAVKAQLLEQAQGQLRELLDRAMREAIQSYPSQDKPLPPPPPGSLSRTQEPSLGKQKVFIIRKSLLDELMEVQHFRTIYHMFIAGLCVFIISTLAIDFIDEGRLLLEFDLLIFSFGQLPLALVTWVPMFLSTLLAPYQALRLWARGTWTQATGLGCALLAAHAVVLCALPVHVAVEHQLPPASRCVLVFEQVRFLMKSYSFLREAVPGTLRARRGEGIQAPSFSSYLYFLFCPTLIYRETYPRTPYVRWNYVAKNFAQALGCVLYACFILGRLCVPVFANMSREPFSTRALVLSILHATLPGIFMLLLIFFAFLHCWLNAFAEMLRFGDRMFYRDWWNSTSFSNYYRTWNVVVHDWLYSYVYQDGLRLLGARARGVAMLGVFLVSAVAHEYIFCFVLGFFYPVMLILFLVIGGMLNFMMHDQRTGPAWNVLMWTMLFLGQGIQVSLYCQEWYARRHCPLPQATFWGLVTPRSWSCHT

> <PDB ID(s) of Target Chain>


> <UniProt (SwissProt) Recommended Name of Target Chain>
Sterol O-acyltransferase 2

> <UniProt (SwissProt) Entry Name of Target Chain>
ACAT-2

> <UniProt (SwissProt) Primary ID of Target Chain>
O75908

> <UniProt (SwissProt) Secondary ID(s) of Target Chain>
F5H7W4 I6L9H9 Q4VB99 Q4VBA1 Q96TD4 Q9UNR2

> <UniProt (SwissProt) Alternative ID(s) of Target Chain>


> <UniProt (TrEMBL) Submitted Name of Target Chain>


> <UniProt (TrEMBL) Entry Name of Target Chain>


> <UniProt (TrEMBL) Primary ID of Target Chain>


> <UniProt (TrEMBL) Secondary ID(s) of Target Chain>


> <UniProt (TrEMBL) Alternative ID(s) of Target Chain>


$$$$

  Mrv0541 11241417312D          

 59 66  0  0  0  0            999 V2000
    2.2252  -17.7478    0.0000 C   0  0  0  0  0  0  0  0  0  0  0  0
    1.8169  -17.0352    0.0000 C   0  0  1  0  0  0  0  0  0  0  0  0
    1.4039  -17.7452    0.0000 C   0  0  0  0  0  0  0  0  0  0  0  0
    1.1084  -15.8018    0.0000 C   0  0  0  0  0  0  0  0  0  0  0  0
    1.1084  -16.6268    0.0000 C   0  0  2  0  0  0  0  0  0  0  0  0
    1.8205  -15.3850    0.0000 C   0  0  0  0  0  0  0  0  0  0  0  0
    2.5327  -15.8018    0.0000 C   0  0  1  0  0  0  0  0  0  0  0  0
    2.5337  -16.6268    0.0000 C   0  0  1  0  0  0  0  0  0  0  0  0
    3.2449  -17.0362    0.0000 C   0  0  0  0  0  0  0  0  0  0  0  0
    3.9595  -16.6250    0.0000 C   0  0  1  0  0  0  0  0  0  0  0  0
    3.2427  -15.3860    0.0000 C   0  0  2  0  0  0  0  0  0  0  0  0
    3.9603  -15.8006    0.0000 C   0  0  2  0  0  0  0  0  0  0  0  0
    4.6743  -15.3886    0.0000 O   0  0  0  0  0  0  0  0  0  0  0  0
    3.2390  -14.5595    0.0000 C   0  0  2  0  0  0  0  0  0  0  0  0
    3.9591  -14.1459    0.0000 C   0  0  0  0  0  0  0  0  0  0  0  0
    4.6817  -14.5597    0.0000 C   0  0  0  0  0  0  0  0  0  0  0  0
    5.3974  -14.1430    0.0000 C   0  0  0  0  0  0  0  0  0  0  0  0
    5.3966  -13.3109    0.0000 C   0  0  0  0  0  0  0  0  0  0  0  0
    4.6740  -12.8972    0.0000 O   0  0  0  0  0  0  0  0  0  0  0  0
    3.9520  -13.3156    0.0000 C   0  0  0  0  0  0  0  0  0  0  0  0
    6.1094  -12.8992    0.0000 C   0  0  0  0  0  0  0  0  0  0  0  0
    6.8252  -13.3119    0.0000 C   0  0  0  0  0  0  0  0  0  0  0  0
    7.5383  -12.8984    0.0000 N   0  0  0  0  0  0  0  0  0  0  0  0
    7.5368  -12.0724    0.0000 C   0  0  0  0  0  0  0  0  0  0  0  0
    6.8163  -11.6659    0.0000 C   0  0  0  0  0  0  0  0  0  0  0  0
    6.1062  -12.0775    0.0000 C   0  0  0  0  0  0  0  0  0  0  0  0
    4.6734  -17.0384    0.0000 O   0  0  0  0  0  0  0  0  0  0  0  0
    5.3886  -16.6268    0.0000 C   0  0  0  0  0  0  0  0  0  0  0  0
    6.1026  -17.0403    0.0000 C   0  0  0  0  0  0  0  0  0  0  0  0
    5.3896  -15.8018    0.0000 O   0  0  0  0  0  0  0  0  0  0  0  0
    6.0969  -17.8656    0.0000 C   0  0  0  0  0  0  0  0  0  0  0  0
    6.8100  -18.2789    0.0000 C   0  0  0  0  0  0  0  0  0  0  0  0
    7.5261  -17.8673    0.0000 C   0  0  0  0  0  0  0  0  0  0  0  0
    7.5244  -17.0378    0.0000 C   0  0  0  0  0  0  0  0  0  0  0  0
    6.8107  -16.6282    0.0000 C   0  0  0  0  0  0  0  0  0  0  0  0
    8.2400  -18.2759    0.0000 C   0  0  0  0  0  0  0  0  0  0  0  0
    8.9545  -18.6884    0.0000 N   0  0  0  0  0  0  0  0  0  0  0  0
    3.2354  -12.9067    0.0000 O   0  0  0  0  0  0  0  0  0  0  0  0
    2.5240  -14.1478    0.0000 O   0  0  0  0  0  0  0  0  0  0  0  0
    2.5253  -14.9767    0.0000 C   0  0  0  0  0  0  0  0  0  0  0  0
    3.9546  -14.9725    0.0000 C   0  0  0  0  0  0  0  0  0  0  0  0
    0.3945  -17.0405    0.0000 O   0  0  0  0  0  0  0  0  0  0  0  0
   -0.3211  -16.6289    0.0000 C   0  0  0  0  0  0  0  0  0  0  0  0
   -1.0346  -17.0425    0.0000 C   0  0  0  0  0  0  0  0  0  0  0  0
   -0.3282  -15.8038    0.0000 O   0  0  0  0  0  0  0  0  0  0  0  0
    0.5788  -17.7426    0.0000 O   0  0  0  0  0  0  0  0  0  0  0  0
    0.1641  -18.4558    0.0000 C   0  0  0  0  0  0  0  0  0  0  0  0
   -0.6641  -18.4531    0.0000 O   0  0  0  0  0  0  0  0  0  0  0  0
    0.5743  -19.1717    0.0000 C   0  0  0  0  0  0  0  0  0  0  0  0
   -1.7495  -16.6305    0.0000 C   0  0  0  0  0  0  0  0  0  0  0  0
   -2.4551  -17.0435    0.0000 C   0  0  0  0  0  0  0  0  0  0  0  0
   -2.4570  -17.8675    0.0000 C   0  0  0  0  0  0  0  0  0  0  0  0
   -1.7342  -18.2768    0.0000 C   0  0  0  0  0  0  0  0  0  0  0  0
   -1.0256  -17.8615    0.0000 C   0  0  0  0  0  0  0  0  0  0  0  0
    0.1586  -19.8824    0.0000 C   0  0  0  0  0  0  0  0  0  0  0  0
    0.5681  -20.5977    0.0000 C   0  0  0  0  0  0  0  0  0  0  0  0
    1.3941  -20.6008    0.0000 C   0  0  0  0  0  0  0  0  0  0  0  0
    1.8088  -19.8826    0.0000 C   0  0  0  0  0  0  0  0  0  0  0  0
    1.3969  -19.1701    0.0000 C   0  0  0  0  0  0  0  0  0  0  0  0
  2  1  1  1  0  0  0
  2  3  1  6  0  0  0
  5  4  1  0  0  0  0
  4  6  1  0  0  0  0
  2  5  1  0  0  0  0
  8  2  1  0  0  0  0
  7  6  1  0  0  0  0
  7  8  1  0  0  0  0
 11  7  1  1  0  0  0
  8  9  1  1  0  0  0
 10  9  1  0  0  0  0
 12 10  1  0  0  0  0
 11 12  1  0  0  0  0
 11 14  1  0  0  0  0
 12 13  1  0  0  0  0
 13 16  1  0  0  0  0
 14 15  1  0  0  0  0
 15 16  2  0  0  0  0
 15 20  1  0  0  0  0
 16 17  1  0  0  0  0
 17 18  2  0  0  0  0
 18 19  1  0  0  0  0
 19 20  1  0  0  0  0
 21 22  2  0  0  0  0
 22 23  1  0  0  0  0
 23 24  2  0  0  0  0
 24 25  1  0  0  0  0
 25 26  2  0  0  0  0
 26 21  1  0  0  0  0
 18 21  1  0  0  0  0
 10 27  1  1  0  0  0
 27 28  1  0  0  0  0
 28 29  1  0  0  0  0
 28 30  2  0  0  0  0
 29 31  2  0  0  0  0
 31 32  1  0  0  0  0
 32 33  2  0  0  0  0
 33 34  1  0  0  0  0
 34 35  2  0  0  0  0
 35 29  1  0  0  0  0
 36 37  3  0  0  0  0
 33 36  1  0  0  0  0
 20 38  2  0  0  0  0
 14 39  1  1  0  0  0
  7 40  1  1  0  0  0
 12 41  1  1  0  0  0
  5 42  1  1  0  0  0
 42 43  1  0  0  0  0
 43 44  1  0  0  0  0
 43 45  2  0  0  0  0
  3 46  1  0  0  0  0
 46 47  1  0  0  0  0
 47 48  2  0  0  0  0
 47 49  1  0  0  0  0
 44 50  2  0  0  0  0
 50 51  1  0  0  0  0
 51 52  2  0  0  0  0
 52 53  1  0  0  0  0
 53 54  2  0  0  0  0
 54 44  1  0  0  0  0
 49 55  2  0  0  0  0
 55 56  1  0  0  0  0
 56 57  2  0  0  0  0
 57 58  1  0  0  0  0
 58 59  2  0  0  0  0
 59 49  1  0  0  0  0
M  END
> <From>
www.bindingDB.org

> <BindingDB Reactant_set_id>
51061794

> <Ligand InChI>
InChI=1S/C47H42N2O10/c1-45-21-20-36(57-42(52)30-13-8-5-9-14-30)46(2,27-55-41(51)29-11-6-4-7-12-29)35(45)24-37(58-43(53)31-18-16-28(25-48)17-19-31)47(3)40(45)39(50)38-34(59-47)23-33(56-44(38)54)32-15-10-22-49-26-32/h4-19,22-23,26,35-37,39-40,50H,20-21,24,27H2,1-3H3/t35-,36+,37+,39+,40-,45+,46+,47-/m1/s1

> <Ligand InChI Key>
QMBMWRWYPUYZQH-RXTJMKIFSA-N

> <BindingDB MonomerID>
50433201

> <BindingDB Ligand Name>
CHEMBL2375704

> <Target Name>
Sterol O-acyltransferase 2

> <Target Source Organism According to Curator or DataSource>


> <Ki (nM)>


> <IC50 (nM)>
 760

> <Kd (nM)>


> <EC50 (nM)>


> <kon (M-1-s-1)>


> <koff (s-1)>


> <pH>


> <Temp (C)>


> <Curation/DataSource>
ChEMBL

> <Article DOI>
10.1016/j.bmcl.2013.02.088

> <BindingDB Entry DOI>
10.7270/Q20866P3

> <PMID>
23535327

> <PubChem AID>


> <Patent Number>


> <Authors>
Ohtawa, M; Yamazaki, H; Matsuda, D; Ohshiro, T; Rudel, LL; Omura, S; Tomoda, H; Nagamitsu, T

> <Institution>
Kitasato University

> <Link to Ligand in BindingDB>
http://www.bindingdb.org/bind/chemsearch/marvin/MolStructure.jsp?monomerid=50433201

> <Link to Target in BindingDB>
http://www.bindingdb.org/jsp/dbsearch/PrimarySearch_ki.jsp?energyterm=kJ/mole&tag=pol&polymerid=7773&target=Sterol+O-acyltransferase+2&column=ki&startPg=0&Increment=50&submit=Search

> <Link to Ligand-Target Pair in BindingDB>
http://www.bindingdb.org/jsp/dbsearch/PrimarySearch_ki.jsp?energyterm=kJ/mole&tag=r21&monomerid=50433201&enzyme=Sterol+O-acyltransferase+2&column=ki&startPg=0&Increment=50&submit=Search

> <Ligand HET ID in PDB>


> <PDB ID(s) for Ligand-Target Complex>


> <PubChem CID>
71602668

> <PubChem SID>
175445518

> <ChEBI ID of Ligand>


> <ChEMBL ID of Ligand>
CHEMBL2375704

> <DrugBank ID of Ligand>


> <IUPHAR_GRAC ID of Ligand>


> <KEGG ID of Ligand>


> <ZINC ID of Ligand>
ZINC96258614

> <Number of Protein Chains in Target (>1 implies a multichain complex)>
1

> <BindingDB Target Chain Sequence>
MEPGGARLRLQRTEGLGGERERQPCGDGNTETHRAPDLVQWTRHMEAVKAQLLEQAQGQLRELLDRAMREAIQSYPSQDKPLPPPPPGSLSRTQEPSLGKQKVFIIRKSLLDELMEVQHFRTIYHMFIAGLCVFIISTLAIDFIDEGRLLLEFDLLIFSFGQLPLALVTWVPMFLSTLLAPYQALRLWARGTWTQATGLGCALLAAHAVVLCALPVHVAVEHQLPPASRCVLVFEQVRFLMKSYSFLREAVPGTLRARRGEGIQAPSFSSYLYFLFCPTLIYRETYPRTPYVRWNYVAKNFAQALGCVLYACFILGRLCVPVFANMSREPFSTRALVLSILHATLPGIFMLLLIFFAFLHCWLNAFAEMLRFGDRMFYRDWWNSTSFSNYYRTWNVVVHDWLYSYVYQDGLRLLGARARGVAMLGVFLVSAVAHEYIFCFVLGFFYPVMLILFLVIGGMLNFMMHDQRTGPAWNVLMWTMLFLGQGIQVSLYCQEWYARRHCPLPQATFWGLVTPRSWSCHT

> <PDB ID(s) of Target Chain>


> <UniProt (SwissProt) Recommended Name of Target Chain>
Sterol O-acyltransferase 2

> <UniProt (SwissProt) Entry Name of Target Chain>
ACAT-2

> <UniProt (SwissProt) Primary ID of Target Chain>
O75908

> <UniProt (SwissProt) Secondary ID(s) of Target Chain>
F5H7W4 I6L9H9 Q4VB99 Q4VBA1 Q96TD4 Q9UNR2

> <UniProt (SwissProt) Alternative ID(s) of Target Chain>


> <UniProt (TrEMBL) Submitted Name of Target Chain>


> <UniProt (TrEMBL) Entry Name of Target Chain>


> <UniProt (TrEMBL) Primary ID of Target Chain>


> <UniProt (TrEMBL) Secondary ID(s) of Target Chain>


> <UniProt (TrEMBL) Alternative ID(s) of Target Chain>


$$$$

  Mrv0541 11241417312D          

 43 47  0  0  0  0            999 V2000
   -1.7583  -27.7495    0.0000 C   0  0  0  0  0  0  0  0  0  0  0  0
   -2.1667  -27.0371    0.0000 C   0  0  1  0  0  0  0  0  0  0  0  0
   -2.5870  -27.7469    0.0000 C   0  0  0  0  0  0  0  0  0  0  0  0
   -2.8750  -25.8037    0.0000 C   0  0  0  0  0  0  0  0  0  0  0  0
   -2.8750  -26.6287    0.0000 C   0  0  2  0  0  0  0  0  0  0  0  0
   -2.1703  -25.3871    0.0000 C   0  0  0  0  0  0  0  0  0  0  0  0
   -1.4574  -25.8037    0.0000 C   0  0  1  0  0  0  0  0  0  0  0  0
   -1.4501  -26.6287    0.0000 C   0  0  1  0  0  0  0  0  0  0  0  0
   -0.7444  -27.0381    0.0000 C   0  0  0  0  0  0  0  0  0  0  0  0
   -0.0257  -26.6269    0.0000 C   0  0  1  0  0  0  0  0  0  0  0  0
   -0.7423  -25.3881    0.0000 C   0  0  2  0  0  0  0  0  0  0  0  0
   -0.0266  -25.8026    0.0000 C   0  0  2  0  0  0  0  0  0  0  0  0
    0.6903  -25.3907    0.0000 O   0  0  0  0  0  0  0  0  0  0  0  0
   -0.7470  -24.5617    0.0000 C   0  0  2  0  0  0  0  0  0  0  0  0
   -0.0253  -24.1482    0.0000 C   0  0  0  0  0  0  0  0  0  0  0  0
    0.6979  -24.5618    0.0000 C   0  0  0  0  0  0  0  0  0  0  0  0
    1.4135  -24.1452    0.0000 C   0  0  0  0  0  0  0  0  0  0  0  0
    1.4126  -23.3132    0.0000 C   0  0  0  0  0  0  0  0  0  0  0  0
    0.6901  -22.8996    0.0000 O   0  0  0  0  0  0  0  0  0  0  0  0
   -0.0349  -23.3179    0.0000 C   0  0  0  0  0  0  0  0  0  0  0  0
    2.1253  -22.9016    0.0000 C   0  0  0  0  0  0  0  0  0  0  0  0
    2.8410  -23.3142    0.0000 C   0  0  0  0  0  0  0  0  0  0  0  0
    3.5541  -22.9007    0.0000 N   0  0  0  0  0  0  0  0  0  0  0  0
    3.5526  -22.0749    0.0000 C   0  0  0  0  0  0  0  0  0  0  0  0
    2.8322  -21.6684    0.0000 C   0  0  0  0  0  0  0  0  0  0  0  0
    2.1221  -22.0800    0.0000 C   0  0  0  0  0  0  0  0  0  0  0  0
    0.6896  -27.0403    0.0000 O   0  0  0  0  0  0  0  0  0  0  0  0
    1.4046  -26.6287    0.0000 C   0  0  0  0  0  0  0  0  0  0  0  0
    2.1185  -27.0421    0.0000 C   0  0  0  0  0  0  0  0  0  0  0  0
    1.4057  -25.8037    0.0000 O   0  0  0  0  0  0  0  0  0  0  0  0
   -0.7517  -22.9091    0.0000 O   0  0  0  0  0  0  0  0  0  0  0  0
   -1.4653  -24.1500    0.0000 O   0  0  0  0  0  0  0  0  0  0  0  0
   -1.4583  -24.9787    0.0000 C   0  0  0  0  0  0  0  0  0  0  0  0
   -0.0292  -24.9746    0.0000 C   0  0  0  0  0  0  0  0  0  0  0  0
   -3.5944  -27.0422    0.0000 O   0  0  0  0  0  0  0  0  0  0  0  0
   -4.3044  -26.6308    0.0000 C   0  0  0  0  0  0  0  0  0  0  0  0
   -5.0177  -27.0443    0.0000 C   0  0  0  0  0  0  0  0  0  0  0  0
   -4.3114  -25.8058    0.0000 O   0  0  0  0  0  0  0  0  0  0  0  0
   -3.4120  -27.7443    0.0000 O   0  0  0  0  0  0  0  0  0  0  0  0
   -3.8223  -28.4574    0.0000 C   0  0  0  0  0  0  0  0  0  0  0  0
   -4.6473  -28.4548    0.0000 O   0  0  0  0  0  0  0  0  0  0  0  0
   -3.4159  -29.1732    0.0000 C   0  0  0  0  0  0  0  0  0  0  0  0
   -2.5909  -29.1759    0.0000 C   0  0  0  0  0  0  0  0  0  0  0  0
  2  1  1  1  0  0  0
  2  3  1  6  0  0  0
  5  4  1  0  0  0  0
  4  6  1  0  0  0  0
  2  5  1  0  0  0  0
  8  2  1  0  0  0  0
  7  6  1  0  0  0  0
  7  8  1  0  0  0  0
 11  7  1  1  0  0  0
  8  9  1  1  0  0  0
 10  9  1  0  0  0  0
 12 10  1  0  0  0  0
 11 12  1  0  0  0  0
 11 14  1  0  0  0  0
 12 13  1  0  0  0  0
 13 16  1  0  0  0  0
 14 15  1  0  0  0  0
 15 16  2  0  0  0  0
 15 20  1  0  0  0  0
 16 17  1  0  0  0  0
 17 18  2  0  0  0  0
 18 19  1  0  0  0  0
 19 20  1  0  0  0  0
 21 22  2  0  0  0  0
 22 23  1  0  0  0  0
 23 24  2  0  0  0  0
 24 25  1  0  0  0  0
 25 26  2  0  0  0  0
 26 21  1  0  0  0  0
 18 21  1  0  0  0  0
 10 27  1  1  0  0  0
 27 28  1  0  0  0  0
 28 29  1  0  0  0  0
 28 30  2  0  0  0  0
 20 31  2  0  0  0  0
 14 32  1  1  0  0  0
  7 33  1  1  0  0  0
 12 34  1  1  0  0  0
  5 35  1  1  0  0  0
 35 36  1  0  0  0  0
 36 37  1  0  0  0  0
 36 38  2  0  0  0  0
  3 39  1  0  0  0  0
 39 40  1  0  0  0  0
 40 41  2  0  0  0  0
 40 42  1  0  0  0  0
 42 43  1  0  0  0  0
M  END
> <From>
www.bindingDB.org

> <BindingDB Reactant_set_id>
51061815

> <Ligand InChI>
InChI=1S/C32H39NO10/c1-7-25(36)39-16-31(5)22-14-24(41-18(3)35)32(6)28(30(22,4)11-10-23(31)40-17(2)34)27(37)26-21(43-32)13-20(42-29(26)38)19-9-8-12-33-15-19/h8-9,12-13,15,22-24,27-28,37H,7,10-11,14,16H2,1-6H3/t22-,23+,24+,27+,28-,30+,31+,32-/m1/s1

> <Ligand InChI Key>
HQJYCJFUVSNJFK-NIGCWPKYSA-N

> <BindingDB MonomerID>
50433219

> <BindingDB Ligand Name>
CHEMBL2375696

> <Target Name>
Sterol O-acyltransferase 2

> <Target Source Organism According to Curator or DataSource>


> <Ki (nM)>


> <IC50 (nM)>
 772

> <Kd (nM)>


> <EC50 (nM)>


> <kon (M-1-s-1)>


> <koff (s-1)>


> <pH>


> <Temp (C)>


> <Curation/DataSource>
ChEMBL

> <Article DOI>
10.1016/j.bmcl.2013.02.088

> <BindingDB Entry DOI>
10.7270/Q20866P3

> <PMID>
23535327

> <PubChem AID>


> <Patent Number>


> <Authors>
Ohtawa, M; Yamazaki, H; Matsuda, D; Ohshiro, T; Rudel, LL; Omura, S; Tomoda, H; Nagamitsu, T

> <Institution>
Kitasato University

> <Link to Ligand in BindingDB>
http://www.bindingdb.org/bind/chemsearch/marvin/MolStructure.jsp?monomerid=50433219

> <Link to Target in BindingDB>
http://www.bindingdb.org/jsp/dbsearch/PrimarySearch_ki.jsp?energyterm=kJ/mole&tag=pol&polymerid=7773&target=Sterol+O-acyltransferase+2&column=ki&startPg=0&Increment=50&submit=Search

> <Link to Ligand-Target Pair in BindingDB>
http://www.bindingdb.org/jsp/dbsearch/PrimarySearch_ki.jsp?energyterm=kJ/mole&tag=r21&monomerid=50433219&enzyme=Sterol+O-acyltransferase+2&column=ki&startPg=0&Increment=50&submit=Search

> <Ligand HET ID in PDB>


> <PDB ID(s) for Ligand-Target Complex>


> <PubChem CID>
73348800

> <PubChem SID>
175445536

> <ChEBI ID of Ligand>


> <ChEMBL ID of Ligand>
CHEMBL2375696

> <DrugBank ID of Ligand>


> <IUPHAR_GRAC ID of Ligand>


> <KEGG ID of Ligand>


> <ZINC ID of Ligand>
ZINC03945399

> <Number of Protein Chains in Target (>1 implies a multichain complex)>
1

> <BindingDB Target Chain Sequence>
MEPGGARLRLQRTEGLGGERERQPCGDGNTETHRAPDLVQWTRHMEAVKAQLLEQAQGQLRELLDRAMREAIQSYPSQDKPLPPPPPGSLSRTQEPSLGKQKVFIIRKSLLDELMEVQHFRTIYHMFIAGLCVFIISTLAIDFIDEGRLLLEFDLLIFSFGQLPLALVTWVPMFLSTLLAPYQALRLWARGTWTQATGLGCALLAAHAVVLCALPVHVAVEHQLPPASRCVLVFEQVRFLMKSYSFLREAVPGTLRARRGEGIQAPSFSSYLYFLFCPTLIYRETYPRTPYVRWNYVAKNFAQALGCVLYACFILGRLCVPVFANMSREPFSTRALVLSILHATLPGIFMLLLIFFAFLHCWLNAFAEMLRFGDRMFYRDWWNSTSFSNYYRTWNVVVHDWLYSYVYQDGLRLLGARARGVAMLGVFLVSAVAHEYIFCFVLGFFYPVMLILFLVIGGMLNFMMHDQRTGPAWNVLMWTMLFLGQGIQVSLYCQEWYARRHCPLPQATFWGLVTPRSWSCHT

> <PDB ID(s) of Target Chain>


> <UniProt (SwissProt) Recommended Name of Target Chain>
Sterol O-acyltransferase 2

> <UniProt (SwissProt) Entry Name of Target Chain>
ACAT-2

> <UniProt (SwissProt) Primary ID of Target Chain>
O75908

> <UniProt (SwissProt) Secondary ID(s) of Target Chain>
F5H7W4 I6L9H9 Q4VB99 Q4VBA1 Q96TD4 Q9UNR2

> <UniProt (SwissProt) Alternative ID(s) of Target Chain>


> <UniProt (TrEMBL) Submitted Name of Target Chain>


> <UniProt (TrEMBL) Entry Name of Target Chain>


> <UniProt (TrEMBL) Primary ID of Target Chain>


> <UniProt (TrEMBL) Secondary ID(s) of Target Chain>


> <UniProt (TrEMBL) Alternative ID(s) of Target Chain>


$$$$

  Mrv0541 11221402012D          

 27 28  0  0  0  0            999 V2000
   -4.8231  -12.6128    0.0000 C   0  0  0  0  0  0  0  0  0  0  0  0
   -4.8243  -13.4404    0.0000 C   0  0  0  0  0  0  0  0  0  0  0  0
   -4.1114  -13.8534    0.0000 C   0  0  0  0  0  0  0  0  0  0  0  0
   -4.1134  -12.2001    0.0000 C   0  0  0  0  0  0  0  0  0  0  0  0
   -3.3953  -12.6089    0.0000 C   0  0  0  0  0  0  0  0  0  0  0  0
   -3.3915  -13.4424    0.0000 C   0  0  0  0  0  0  0  0  0  0  0  0
   -2.6718  -13.8538    0.0000 C   0  0  0  0  0  0  0  0  0  0  0  0
   -1.9511  -13.4360    0.0000 C   0  0  0  0  0  0  0  0  0  0  0  0
   -1.9547  -12.6025    0.0000 C   0  0  0  0  0  0  0  0  0  0  0  0
   -2.6792  -12.1866    0.0000 C   0  0  0  0  0  0  0  0  0  0  0  0
   -4.1173  -11.3751    0.0000 O   0  0  0  0  0  0  0  0  0  0  0  0
   -4.1140  -14.6783    0.0000 O   0  0  0  0  0  0  0  0  0  0  0  0
   -2.6840  -11.3616    0.0000 O   0  0  0  0  0  0  0  0  0  0  0  0
   -2.6693  -14.6788    0.0000 O   0  0  0  0  0  0  0  0  0  0  0  0
   -1.2354  -13.8463    0.0000 C   0  0  0  0  0  0  0  0  0  0  0  0
   -1.2328  -14.6713    0.0000 O   0  0  0  0  0  0  0  0  0  0  0  0
   -0.5222  -13.4316    0.0000 C   0  0  0  0  0  0  0  0  0  0  0  0
    0.9067  -13.4273    0.0000 C   0  0  0  0  0  0  0  0  0  0  0  0
    1.6224  -13.8376    0.0000 C   0  0  0  0  0  0  0  0  0  0  0  0
    0.9042  -12.6024    0.0000 C   0  0  0  0  0  0  0  0  0  0  0  0
    0.1935  -13.8419    0.0000 C   0  0  0  0  0  0  0  0  0  0  0  0
   -0.5171  -15.0816    0.0000 C   0  0  0  0  0  0  0  0  0  0  0  0
   -0.5146  -15.9065    0.0000 C   0  0  0  0  0  0  0  0  0  0  0  0
    0.1960  -14.6669    0.0000 O   0  0  0  0  0  0  0  0  0  0  0  0
   -1.2278  -16.3212    0.0000 C   0  0  0  0  0  0  0  0  0  0  0  0
   -1.2252  -17.1462    0.0000 C   0  0  0  0  0  0  0  0  0  0  0  0
   -1.9435  -15.9109    0.0000 C   0  0  0  0  0  0  0  0  0  0  0  0
 10 13  1  0  0  0  0
  3  6  2  0  0  0  0
  7 14  1  0  0  0  0
  1  2  2  0  0  0  0
  8 15  1  0  0  0  0
  5  4  2  0  0  0  0
 15 16  1  0  0  0  0
  4  1  1  0  0  0  0
 15 17  2  0  0  0  0
 17 21  1  4  0  0  0
  5 10  1  0  0  0  0
 21 18  2  0  0  0  0
  6  7  1  0  0  0  0
 18 19  1  0  0  0  0
  7  8  2  0  0  0  0
 18 20  1  0  0  0  0
  8  9  1  0  0  0  0
  9 10  2  0  0  0  0
 16 22  1  0  0  0  0
  5  6  1  0  0  0  0
 22 23  1  0  0  0  0
  4 11  1  0  0  0  0
 22 24  2  0  0  0  0
 23 25  1  0  0  0  0
  3 12  1  0  0  0  0
 25 26  1  0  0  0  0
  2  3  1  0  0  0  0
 25 27  1  0  0  0  0
M  END
> <From>
www.bindingDB.org

> <BindingDB Reactant_set_id>
50367880

> <Ligand InChI>
InChI=1S/C21H24O6/c1-11(2)5-8-17(27-18(25)9-12(3)4)13-10-16(24)19-14(22)6-7-15(23)20(19)21(13)26/h5-8,10,12,22-24,26H,9H2,1-4H3

> <Ligand InChI Key>
RCLASMSCTFWRIF-UHFFFAOYSA-N

> <BindingDB MonomerID>
50200396

> <BindingDB Ligand Name>
(R)-1-(5,8-dihydroxy-1,4-dioxo-1,4-dihydronaphthalen-2-yl)-4-methylpent-3-enyl 3-methylbutanoate::CHEMBL395857

> <Target Name>
Sterol O-acyltransferase 2

> <Target Source Organism According to Curator or DataSource>


> <Ki (nM)>


> <IC50 (nM)>
 800

> <Kd (nM)>


> <EC50 (nM)>


> <kon (M-1-s-1)>


> <koff (s-1)>


> <pH>


> <Temp (C)>


> <Curation/DataSource>
ChEMBL

> <Article DOI>
10.1016/j.bmcl.2006.11.024

> <BindingDB Entry DOI>
10.7270/Q2H70FFW

> <PMID>
17157006

> <PubChem AID>


> <Patent Number>


> <Authors>
An, S; Park, YD; Paik, YK; Jeong, TS; Lee, WS

> <Institution>
National Research Laboratory of Lipid Metabolism and Atherosclerosis

> <Link to Ligand in BindingDB>
http://www.bindingdb.org/bind/chemsearch/marvin/MolStructure.jsp?monomerid=50200396

> <Link to Target in BindingDB>
http://www.bindingdb.org/jsp/dbsearch/PrimarySearch_ki.jsp?energyterm=kJ/mole&tag=pol&polymerid=7773&target=Sterol+O-acyltransferase+2&column=ki&startPg=0&Increment=50&submit=Search

> <Link to Ligand-Target Pair in BindingDB>
http://www.bindingdb.org/jsp/dbsearch/PrimarySearch_ki.jsp?energyterm=kJ/mole&tag=r21&monomerid=50200396&enzyme=Sterol+O-acyltransferase+2&column=ki&startPg=0&Increment=50&submit=Search

> <Ligand HET ID in PDB>


> <PDB ID(s) for Ligand-Target Complex>


> <PubChem CID>
91936076

> <PubChem SID>
104080730

> <ChEBI ID of Ligand>


> <ChEMBL ID of Ligand>
CHEMBL395857

> <DrugBank ID of Ligand>


> <IUPHAR_GRAC ID of Ligand>


> <KEGG ID of Ligand>


> <ZINC ID of Ligand>
ZINC02516907

> <Number of Protein Chains in Target (>1 implies a multichain complex)>
1

> <BindingDB Target Chain Sequence>
MEPGGARLRLQRTEGLGGERERQPCGDGNTETHRAPDLVQWTRHMEAVKAQLLEQAQGQLRELLDRAMREAIQSYPSQDKPLPPPPPGSLSRTQEPSLGKQKVFIIRKSLLDELMEVQHFRTIYHMFIAGLCVFIISTLAIDFIDEGRLLLEFDLLIFSFGQLPLALVTWVPMFLSTLLAPYQALRLWARGTWTQATGLGCALLAAHAVVLCALPVHVAVEHQLPPASRCVLVFEQVRFLMKSYSFLREAVPGTLRARRGEGIQAPSFSSYLYFLFCPTLIYRETYPRTPYVRWNYVAKNFAQALGCVLYACFILGRLCVPVFANMSREPFSTRALVLSILHATLPGIFMLLLIFFAFLHCWLNAFAEMLRFGDRMFYRDWWNSTSFSNYYRTWNVVVHDWLYSYVYQDGLRLLGARARGVAMLGVFLVSAVAHEYIFCFVLGFFYPVMLILFLVIGGMLNFMMHDQRTGPAWNVLMWTMLFLGQGIQVSLYCQEWYARRHCPLPQATFWGLVTPRSWSCHT

> <PDB ID(s) of Target Chain>


> <UniProt (SwissProt) Recommended Name of Target Chain>
Sterol O-acyltransferase 2

> <UniProt (SwissProt) Entry Name of Target Chain>
ACAT-2

> <UniProt (SwissProt) Primary ID of Target Chain>
O75908

> <UniProt (SwissProt) Secondary ID(s) of Target Chain>
F5H7W4 I6L9H9 Q4VB99 Q4VBA1 Q96TD4 Q9UNR2

> <UniProt (SwissProt) Alternative ID(s) of Target Chain>


> <UniProt (TrEMBL) Submitted Name of Target Chain>


> <UniProt (TrEMBL) Entry Name of Target Chain>


> <UniProt (TrEMBL) Primary ID of Target Chain>


> <UniProt (TrEMBL) Secondary ID(s) of Target Chain>


> <UniProt (TrEMBL) Alternative ID(s) of Target Chain>


$$$$
00036003.cdx
  Mrv0541 12012113462D          

 38 41  0  0  0  0            999 V2000
    2.3975   -3.3983    0.0000 C   0  0  0  0  0  0  0  0  0  0  0  0
    3.1119   -3.8108    0.0000 C   0  0  1  0  0  0  0  0  0  0  0  0
    3.1119   -4.6358    0.0000 C   0  0  0  0  0  0  0  0  0  0  0  0
    2.3975   -5.0483    0.0000 C   0  0  1  0  0  0  0  0  0  0  0  0
    1.6830   -4.6358    0.0000 C   0  0  2  0  0  0  0  0  0  0  0  0
    1.6830   -3.8108    0.0000 C   0  0  2  0  0  0  0  0  0  0  0  0
    0.9685   -3.3983    0.0000 C   0  0  2  0  0  0  0  0  0  0  0  0
    0.9685   -5.0483    0.0000 O   0  0  0  0  0  0  0  0  0  0  0  0
    3.8264   -3.3983    0.0000 C   0  0  3  0  0  0  0  0  0  0  0  0
    4.2389   -4.1128    0.0000 C   0  0  0  0  0  0  0  0  0  0  0  0
    0.9685   -2.5733    0.0000 O   0  0  0  0  0  0  0  0  0  0  0  0
    0.2541   -3.8108    0.0000 C   0  0  0  0  0  0  0  0  0  0  0  0
    0.2541   -4.6358    0.0000 C   0  0  0  0  0  0  0  0  0  0  0  0
   -0.4604   -5.0483    0.0000 C   0  0  0  0  0  0  0  0  0  0  0  0
    1.6830   -5.4608    0.0000 C   0  0  0  0  0  0  0  0  0  0  0  0
   -1.1749   -4.6358    0.0000 C   0  0  0  0  0  0  0  0  0  0  0  0
   -1.1749   -3.8108    0.0000 O   0  0  0  0  0  0  0  0  0  0  0  0
   -0.4604   -3.3983    0.0000 C   0  0  0  0  0  0  0  0  0  0  0  0
   -0.4604   -2.5733    0.0000 O   0  0  0  0  0  0  0  0  0  0  0  0
   -1.8894   -5.0483    0.0000 C   0  0  0  0  0  0  0  0  0  0  0  0
   -1.8894   -5.8733    0.0000 C   0  0  0  0  0  0  0  0  0  0  0  0
   -2.6038   -6.2858    0.0000 N   0  0  0  0  0  0  0  0  0  0  0  0
   -3.3183   -5.8733    0.0000 C   0  0  0  0  0  0  0  0  0  0  0  0
   -3.3183   -5.0483    0.0000 C   0  0  0  0  0  0  0  0  0  0  0  0
   -2.6038   -4.6358    0.0000 C   0  0  0  0  0  0  0  0  0  0  0  0
    3.4139   -2.6839    0.0000 C   0  0  0  0  0  0  0  0  0  0  0  0
    3.8264   -4.8273    0.0000 O   0  0  0  0  0  0  0  0  0  0  0  0
    2.3975   -5.8733    0.0000 O   0  0  0  0  0  0  0  0  0  0  0  0
    3.8264   -5.8733    0.0000 O   0  0  0  0  0  0  0  0  0  0  0  0
    3.1119   -6.2858    0.0000 C   0  0  0  0  0  0  0  0  0  0  0  0
    3.1119   -7.1108    0.0000 C   0  0  0  0  0  0  0  0  0  0  0  0
    4.5409   -2.9858    0.0000 O   0  0  0  0  0  0  0  0  0  0  0  0
    5.9698   -2.9858    0.0000 O   0  0  0  0  0  0  0  0  0  0  0  0
    5.2554   -3.3983    0.0000 C   0  0  0  0  0  0  0  0  0  0  0  0
    5.2554   -4.2233    0.0000 C   0  0  0  0  0  0  0  0  0  0  0  0
    4.2389   -5.5418    0.0000 C   0  0  0  0  0  0  0  0  0  0  0  0
    3.8264   -6.2562    0.0000 C   0  0  0  0  0  0  0  0  0  0  0  0
    5.0639   -5.5417    0.0000 O   0  0  0  0  0  0  0  0  0  0  0  0
  2  1  1  0  0  0  0
  2  3  1  0  0  0  0
  4  3  1  0  0  0  0
  5  4  1  0  0  0  0
  5  6  1  0  0  0  0
  6  1  1  6  0  0  0
  6  7  1  0  0  0  0
  5  8  1  0  0  0  0
  2  9  1  6  0  0  0
  9 10  1  4  0  0  0
  7 11  1  1  0  0  0
  7 12  1  0  0  0  0
 12 13  4  0  0  0  0
 13 14  4  0  0  0  0
  8 13  1  0  0  0  0
  5 15  1  6  0  0  0
 14 16  4  0  0  0  0
 16 17  4  0  0  0  0
 17 18  4  0  0  0  0
 18 12  4  0  0  0  0
 18 19  2  0  0  0  0
 16 20  1  0  0  0  0
 20 21  4  0  0  0  0
 21 22  4  0  0  0  0
 22 23  4  0  0  0  0
 23 24  4  0  0  0  0
 24 25  4  0  0  0  0
 25 20  4  0  0  0  0
  9 26  1  0  0  0  0
  4 28  1  6  0  0  0
  9 32  1  0  0  0  0
 32 34  1  0  0  0  0
 33 34  2  0  0  0  0
 34 35  1  0  0  0  0
 28 30  1  0  0  0  0
 29 30  2  0  0  0  0
 30 31  1  0  0  0  0
 10 27  1  0  0  0  0
 27 36  1  0  0  0  0
 36 37  1  0  0  0  0
 36 38  2  0  0  0  0
M  END
> <From>
www.bindingDB.org

> <BindingDB Reactant_set_id>
765831

> <Ligand InChI>
InChI=1S/C27H31NO10/c1-14(29)34-13-26(4,37-16(3)31)18-9-19-24(32)23-21(38-27(19,5)22(10-18)35-15(2)30)11-20(36-25(23)33)17-7-6-8-28-12-17/h6-8,11-12,18-19,22,24,32H,9-10,13H2,1-5H3/t18-,19-,22-,24-,26?,27-/m0/s1

> <Ligand InChI Key>
NIGGKHQHUNJNPM-HDRRGKJHSA-N

> <BindingDB MonomerID>
383176

> <BindingDB Ligand Name>
US10278962, Compound 15::US10278962, Compound 7

> <Target Name>
Sterol O-acyltransferase 2

> <Target Source Organism According to Curator or DataSource>


> <Ki (nM)>


> <IC50 (nM)>
 831

> <Kd (nM)>


> <EC50 (nM)>


> <kon (M-1-s-1)>


> <koff (s-1)>


> <pH>


> <Temp (C)>


> <Curation/DataSource>
US Patent

> <Article DOI>


> <BindingDB Entry DOI>
10.7270/Q2CF9SF8

> <PMID>


> <PubChem AID>
aid1798542

> <Patent Number>
US10278962

> <Authors>
Nan, F; Li, B; Zhan, Y; Zhang, X; Xiong, Y; Hu, X; Zhang, Y

> <Institution>
Shanghai Institute of Materia Medica, Chinese Academy of Sciences

> <Link to Ligand in BindingDB>
http://www.bindingdb.org/bind/chemsearch/marvin/MolStructure.jsp?monomerid=383176

> <Link to Target in BindingDB>
http://www.bindingdb.org/jsp/dbsearch/PrimarySearch_ki.jsp?energyterm=kJ/mole&tag=pol&polymerid=7773&target=Sterol+O-acyltransferase+2&column=ki&startPg=0&Increment=50&submit=Search

> <Link to Ligand-Target Pair in BindingDB>
http://www.bindingdb.org/jsp/dbsearch/PrimarySearch_ki.jsp?energyterm=kJ/mole&tag=r21&monomerid=383176&enzyme=Sterol+O-acyltransferase+2&column=ki&startPg=0&Increment=50&submit=Search

> <Ligand HET ID in PDB>


> <PDB ID(s) for Ligand-Target Complex>


> <PubChem CID>
134188224

> <PubChem SID>
404852471

> <ChEBI ID of Ligand>


> <ChEMBL ID of Ligand>


> <DrugBank ID of Ligand>


> <IUPHAR_GRAC ID of Ligand>


> <KEGG ID of Ligand>


> <ZINC ID of Ligand>


> <Number of Protein Chains in Target (>1 implies a multichain complex)>
1

> <BindingDB Target Chain Sequence>
MEPGGARLRLQRTEGLGGERERQPCGDGNTETHRAPDLVQWTRHMEAVKAQLLEQAQGQLRELLDRAMREAIQSYPSQDKPLPPPPPGSLSRTQEPSLGKQKVFIIRKSLLDELMEVQHFRTIYHMFIAGLCVFIISTLAIDFIDEGRLLLEFDLLIFSFGQLPLALVTWVPMFLSTLLAPYQALRLWARGTWTQATGLGCALLAAHAVVLCALPVHVAVEHQLPPASRCVLVFEQVRFLMKSYSFLREAVPGTLRARRGEGIQAPSFSSYLYFLFCPTLIYRETYPRTPYVRWNYVAKNFAQALGCVLYACFILGRLCVPVFANMSREPFSTRALVLSILHATLPGIFMLLLIFFAFLHCWLNAFAEMLRFGDRMFYRDWWNSTSFSNYYRTWNVVVHDWLYSYVYQDGLRLLGARARGVAMLGVFLVSAVAHEYIFCFVLGFFYPVMLILFLVIGGMLNFMMHDQRTGPAWNVLMWTMLFLGQGIQVSLYCQEWYARRHCPLPQATFWGLVTPRSWSCHT

> <PDB ID(s) of Target Chain>


> <UniProt (SwissProt) Recommended Name of Target Chain>
Sterol O-acyltransferase 2

> <UniProt (SwissProt) Entry Name of Target Chain>
ACAT-2

> <UniProt (SwissProt) Primary ID of Target Chain>
O75908

> <UniProt (SwissProt) Secondary ID(s) of Target Chain>
F5H7W4 I6L9H9 Q4VB99 Q4VBA1 Q96TD4 Q9UNR2

> <UniProt (SwissProt) Alternative ID(s) of Target Chain>


> <UniProt (TrEMBL) Submitted Name of Target Chain>


> <UniProt (TrEMBL) Entry Name of Target Chain>


> <UniProt (TrEMBL) Primary ID of Target Chain>


> <UniProt (TrEMBL) Secondary ID(s) of Target Chain>


> <UniProt (TrEMBL) Alternative ID(s) of Target Chain>


$$$$

     RDKit          2D

 26 25  0  0  0  0  0  0  0  0999 V2000
   13.2959   -5.6792    0.0000 C   0  0  0  0  0  0  0  0  0  0  0  0
   14.0104   -5.2667    0.0000 C   0  0  0  0  0  0  0  0  0  0  0  0
   14.7249   -5.6792    0.0000 C   0  0  0  0  0  0  0  0  0  0  0  0
   14.0104   -4.4417    0.0000 C   0  0  0  0  0  0  0  0  0  0  0  0
   15.4393   -5.2667    0.0000 C   0  0  0  0  0  0  0  0  0  0  0  0
   16.1538   -5.6792    0.0000 C   0  0  0  0  0  0  0  0  0  0  0  0
   15.4393   -4.4417    0.0000 N   0  0  0  0  0  0  0  0  0  0  0  0
   16.1538   -4.0292    0.0000 C   0  0  0  0  0  0  0  0  0  0  0  0
   14.7249   -4.0292    0.0000 C   0  0  0  0  0  0  0  0  0  0  0  0
   16.1538   -6.5042    0.0000 O   0  0  0  0  0  0  0  0  0  0  0  0
   16.8683   -5.2667    0.0000 N   0  0  0  0  0  0  0  0  0  0  0  0
   17.5827   -5.6792    0.0000 C   0  0  0  0  0  0  0  0  0  0  0  0
   18.2972   -5.2667    0.0000 C   0  0  0  0  0  0  0  0  0  0  0  0
   17.5827   -6.5042    0.0000 C   0  0  0  0  0  0  0  0  0  0  0  0
   16.8683   -6.9167    0.0000 O   0  0  0  0  0  0  0  0  0  0  0  0
   18.2972   -6.9167    0.0000 C   0  0  0  0  0  0  0  0  0  0  0  0
   18.2972   -7.7417    0.0000 C   0  0  0  0  0  0  0  0  0  0  0  0
   19.0118   -5.6792    0.0000 C   0  0  0  0  0  0  0  0  0  0  0  0
   19.7262   -5.2667    0.0000 C   0  0  0  0  0  0  0  0  0  0  0  0
   19.0118   -6.5042    0.0000 C   0  0  0  0  0  0  0  0  0  0  0  0
   20.4407   -5.6792    0.0000 Cl  0  0  0  0  0  0  0  0  0  0  0  0
   19.7262   -4.4417    0.0000 Cl  0  0  0  0  0  0  0  0  0  0  0  0
   20.4377   -4.8459    0.0000 Cl  0  0  0  0  0  0  0  0  0  0  0  0
   12.5815   -5.2667    0.0000 Cl  0  0  0  0  0  0  0  0  0  0  0  0
   13.2959   -6.5042    0.0000 Cl  0  0  0  0  0  0  0  0  0  0  0  0
   12.5792   -6.0876    0.0000 Cl  0  0  0  0  0  0  0  0  0  0  0  0
  1  2  1  0
  2  3  1  0
  2  4  1  1
  5  3  1  6
  5  6  1  0
  5  7  1  0
  7  8  1  0
  7  9  1  0
  6 10  2  0
  6 11  1  0
 11 12  1  0
 12 13  1  1
 12 14  1  0
 14 15  2  0
 14 16  1  0
 16 17  1  0
 13 18  1  0
 18 19  1  0
 18 20  1  1
 19 21  1  0
 19 22  1  0
 19 23  1  0
  1 24  1  0
  1 25  1  0
  1 26  1  0
M  END
> <From>
www.bindingDB.org

> <BindingDB Reactant_set_id>
51125428

> <Ligand InChI>
InChI=1S/C16H26Cl6N2O2/c1-6-13(25)11(7-9(2)15(17,18)19)23-14(26)12(24(4)5)8-10(3)16(20,21)22/h9-12H,6-8H2,1-5H3,(H,23,26)/t9-,10-,11-,12-/m0/s1

> <Ligand InChI Key>
HOXGICVBHXJSEI-BJDJZHNGSA-N

> <BindingDB MonomerID>
50461446

> <BindingDB Ligand Name>
CHEMBL4227742

> <Target Name>
Sterol O-acyltransferase 2

> <Target Source Organism According to Curator or DataSource>


> <Ki (nM)>


> <IC50 (nM)>
 860

> <Kd (nM)>


> <EC50 (nM)>


> <kon (M-1-s-1)>


> <koff (s-1)>


> <pH>


> <Temp (C)>


> <Curation/DataSource>
ChEMBL

> <Article DOI>
10.1016/j.bmcl.2018.03.077

> <BindingDB Entry DOI>
10.7270/Q25Q4ZRC

> <PMID>
29631961

> <PubChem AID>


> <Patent Number>


> <Authors>
Kapojos, MM; Abdjul, DB; Yamazaki, H; Ohshiro, T; Rotinsulu, H; Wewengkang, DS; Sumilat, DA; Tomoda, H; Namikoshi, M; Uchida, R

> <Institution>
Tohoku Medical and Pharmaceutical University

> <Link to Ligand in BindingDB>
http://www.bindingdb.org/bind/chemsearch/marvin/MolStructure.jsp?monomerid=50461446

> <Link to Target in BindingDB>
http://www.bindingdb.org/jsp/dbsearch/PrimarySearch_ki.jsp?energyterm=kJ/mole&tag=pol&polymerid=50007205&target=Sterol+O-acyltransferase+2&column=ki&startPg=0&Increment=50&submit=Search

> <Link to Ligand-Target Pair in BindingDB>
http://www.bindingdb.org/jsp/dbsearch/PrimarySearch_ki.jsp?energyterm=kJ/mole&tag=r21&monomerid=50461446&enzyme=Sterol+O-acyltransferase+2&column=ki&startPg=0&Increment=50&submit=Search

> <Ligand HET ID in PDB>


> <PDB ID(s) for Ligand-Target Complex>


> <PubChem CID>
145968634

> <PubChem SID>
433928711

> <ChEBI ID of Ligand>


> <ChEMBL ID of Ligand>


> <DrugBank ID of Ligand>


> <IUPHAR_GRAC ID of Ligand>


> <KEGG ID of Ligand>


> <ZINC ID of Ligand>


> <Number of Protein Chains in Target (>1 implies a multichain complex)>
1

> <BindingDB Target Chain Sequence>
MEPGGARLRLQRTEGPGGEREHQPCRDGNTETHRAPDLVKWTRHMEAVKAQLLEQAQGQLRELLDRAMWEAIQSYPSQDKPPPLPPPDSLSRTQEPSLGKQKVFIIRKSLLDELMEVQHFRTIYHMFIAGLCVFIISTLAIDFIDEGRLLLEFDLLIFSFGQLPLALVTWVPMFLSTLLAPYQALRLWARPGARGTWTLGAGLGCALLAAHALVLCALPVHVAVEHQLPPASRCVLVFEQVRFLMKSYSFLREAVPGTLRARRGEGIQAPSFSSYLYFLFCPTLIYRETYPRTPYIRWNYVAKNFAQALGCVLYACFILGRLCVPVFANMSREPFSTRALVLSILHATLPGIFMLLLIFFAFLHCWLNAFAEMLRFGDRMFYRDWWNSTSFSNYYRTWNVVVHDWLYSYVYQDGLWLLGAQARGVAMLGVFLVSAVAHEYIFCFVLGFFYPVMLILFLVIGGMLNFMMHDQHTGPAWNVLMWTMLFLGQGIQVSLYCQEWYARRHCPLPQTTFWGLVTPRSWSCHT

> <PDB ID(s) of Target Chain>


> <UniProt (SwissProt) Recommended Name of Target Chain>
Sterol O-acyltransferase 2

> <UniProt (SwissProt) Entry Name of Target Chain>
ACAT-2

> <UniProt (SwissProt) Primary ID of Target Chain>
O77759

> <UniProt (SwissProt) Secondary ID(s) of Target Chain>


> <UniProt (SwissProt) Alternative ID(s) of Target Chain>


> <UniProt (TrEMBL) Submitted Name of Target Chain>


> <UniProt (TrEMBL) Entry Name of Target Chain>


> <UniProt (TrEMBL) Primary ID of Target Chain>


> <UniProt (TrEMBL) Secondary ID(s) of Target Chain>


> <UniProt (TrEMBL) Alternative ID(s) of Target Chain>


$$$$

  Mrv0541 11241417312D          

 47 52  0  0  0  0            999 V2000
   11.1773   -8.5450    0.0000 C   0  0  2  0  0  0  0  0  0  0  0  0
   15.4561   -3.5846    0.0000 C   0  0  0  0  0  0  0  0  0  0  0  0
   11.1688   -6.8951    0.0000 C   0  0  0  0  0  0  0  0  0  0  0  0
   13.3157   -4.8177    0.0000 O   0  0  0  0  0  0  0  0  0  0  0  0
   12.5970   -6.8908    0.0000 C   0  0  0  0  0  0  0  0  0  0  0  0
   10.4570   -8.9513    0.0000 C   0  0  1  0  0  0  0  0  0  0  0  0
   13.3160   -7.3049    0.0000 O   0  0  0  0  0  0  0  0  0  0  0  0
   12.5944   -5.2341    0.0000 C   0  0  0  0  0  0  0  0  0  0  0  0
   12.6018   -8.5432    0.0000 C   0  0  2  0  0  0  0  0  0  0  0  0
   11.8784   -4.8273    0.0000 O   0  0  0  0  0  0  0  0  0  0  0  0
   15.4651   -5.2304    0.0000 C   0  0  0  0  0  0  0  0  0  0  0  0
   16.1775   -4.8190    0.0000 N   0  0  0  0  0  0  0  0  0  0  0  0
   14.0378   -5.2293    0.0000 C   0  0  0  0  0  0  0  0  0  0  0  0
   14.0386   -6.0614    0.0000 C   0  0  0  0  0  0  0  0  0  0  0  0
    7.9794  -10.3720    0.0000 O   0  0  0  0  0  0  0  0  0  0  0  0
   11.8819   -6.4759    0.0000 C   0  0  2  0  0  0  0  0  0  0  0  0
   14.7466   -3.9983    0.0000 C   0  0  0  0  0  0  0  0  0  0  0  0
    9.7493   -7.7201    0.0000 C   0  0  0  0  0  0  0  0  0  0  0  0
    9.0360   -8.9565    0.0000 O   0  0  0  0  0  0  0  0  0  0  0  0
   14.7431   -8.9564    0.0000 C   0  0  0  0  0  0  0  0  0  0  0  0
   14.0296   -8.5451    0.0000 C   0  0  0  0  0  0  0  0  0  0  0  0
    8.3202   -7.7221    0.0000 O   0  0  0  0  0  0  0  0  0  0  0  0
   11.8879   -8.9523    0.0000 C   0  0  0  0  0  0  0  0  0  0  0  0
   10.0461   -9.6647    0.0000 C   0  0  0  0  0  0  0  0  0  0  0  0
   14.7498   -4.8199    0.0000 C   0  0  0  0  0  0  0  0  0  0  0  0
    7.6104   -8.9585    0.0000 C   0  0  0  0  0  0  0  0  0  0  0  0
   13.3153   -8.9545    0.0000 O   0  0  0  0  0  0  0  0  0  0  0  0
   16.1760   -3.9930    0.0000 C   0  0  0  0  0  0  0  0  0  0  0  0
   12.6027   -7.7189    0.0000 C   0  0  1  0  0  0  0  0  0  0  0  0
   10.8674   -9.6673    0.0000 C   0  0  0  0  0  0  0  0  0  0  0  0
   14.0307   -7.7201    0.0000 O   0  0  0  0  0  0  0  0  0  0  0  0
   11.8857   -7.3023    0.0000 C   0  0  1  0  0  0  0  0  0  0  0  0
   12.6014   -6.0643    0.0000 C   0  0  0  0  0  0  0  0  0  0  0  0
    9.2166  -11.0899    0.0000 C   0  0  0  0  0  0  0  0  0  0  0  0
    9.2212   -9.6621    0.0000 O   0  0  0  0  0  0  0  0  0  0  0  0
   11.1675   -6.0663    0.0000 O   0  0  0  0  0  0  0  0  0  0  0  0
    9.7493   -8.5451    0.0000 C   0  0  2  0  0  0  0  0  0  0  0  0
   11.1762   -7.7201    0.0000 C   0  0  1  0  0  0  0  0  0  0  0  0
   13.3235   -6.4760    0.0000 C   0  0  0  0  0  0  0  0  0  0  0  0
    8.3215   -8.5471    0.0000 C   0  0  0  0  0  0  0  0  0  0  0  0
    8.8044  -10.3747    0.0000 C   0  0  0  0  0  0  0  0  0  0  0  0
   10.4608   -7.3013    0.0000 C   0  0  0  0  0  0  0  0  0  0  0  0
    8.8016  -11.8017    0.0000 C   0  0  0  0  0  0  0  0  0  0  0  0
    9.2132  -12.5164    0.0000 C   0  0  0  0  0  0  0  0  0  0  0  0
   10.0396  -12.5174    0.0000 C   0  0  0  0  0  0  0  0  0  0  0  0
   10.4527  -11.7978    0.0000 C   0  0  0  0  0  0  0  0  0  0  0  0
   10.0388  -11.0860    0.0000 C   0  0  0  0  0  0  0  0  0  0  0  0
 21 31  2  0  0  0  0
  2 17  2  0  0  0  0
 41 15  2  0  0  0  0
  6 30  1  1  0  0  0
  9 23  1  0  0  0  0
 29  5  1  1  0  0  0
 35 41  1  0  0  0  0
 13 25  1  0  0  0  0
  9 27  1  1  0  0  0
 38  1  1  0  0  0  0
 16 33  1  0  0  0  0
 25 11  2  0  0  0  0
 38  3  1  1  0  0  0
  6 37  1  0  0  0  0
 29  7  1  0  0  0  0
 32 29  1  1  0  0  0
 33  8  1  0  0  0  0
  4  8  1  0  0  0  0
 37 19  1  1  0  0  0
 27 21  1  0  0  0  0
 28  2  1  0  0  0  0
  7 39  1  0  0  0  0
 12 28  2  0  0  0  0
 32 38  1  0  0  0  0
  1 23  1  1  0  0  0
 14 13  2  0  0  0  0
 37 18  1  0  0  0  0
 19 40  1  0  0  0  0
 16 36  1  1  0  0  0
 18 42  1  0  0  0  0
 24 35  1  0  0  0  0
  1  6  1  0  0  0  0
 39 14  1  0  0  0  0
 29  9  1  0  0  0  0
 38 42  1  0  0  0  0
 40 22  2  0  0  0  0
 32 16  1  0  0  0  0
 33 39  2  0  0  0  0
 41 34  1  0  0  0  0
 13  4  1  0  0  0  0
 11 12  1  0  0  0  0
  6 24  1  6  0  0  0
  8 10  2  0  0  0  0
 17 25  1  0  0  0  0
 21 20  1  0  0  0  0
 40 26  1  0  0  0  0
 34 43  2  0  0  0  0
 43 44  1  0  0  0  0
 44 45  2  0  0  0  0
 45 46  1  0  0  0  0
 46 47  2  0  0  0  0
 47 34  1  0  0  0  0
M  END
> <From>
www.bindingDB.org

> <BindingDB Reactant_set_id>
51061814

> <Ligand InChI>
InChI=1S/C36H39NO10/c1-20(38)44-27-13-14-34(3)26(35(27,4)19-43-32(41)22-10-7-6-8-11-22)17-28(45-21(2)39)36(5)31(34)30(40)29-25(47-36)16-24(46-33(29)42)23-12-9-15-37-18-23/h6-12,15-16,18,26-28,30-31,40H,13-14,17,19H2,1-5H3/t26-,27+,28+,30+,31-,34+,35+,36-/m1/s1

> <Ligand InChI Key>
GKBIVOBKGQWSLW-HRSZXCBJSA-N

> <BindingDB MonomerID>
50433218

> <BindingDB Ligand Name>
CHEMBL2375698

> <Target Name>
Sterol O-acyltransferase 2

> <Target Source Organism According to Curator or DataSource>


> <Ki (nM)>


> <IC50 (nM)>
 890

> <Kd (nM)>


> <EC50 (nM)>


> <kon (M-1-s-1)>


> <koff (s-1)>


> <pH>


> <Temp (C)>


> <Curation/DataSource>
ChEMBL

> <Article DOI>
10.1016/j.bmcl.2013.02.088

> <BindingDB Entry DOI>
10.7270/Q20866P3

> <PMID>
23535327

> <PubChem AID>


> <Patent Number>


> <Authors>
Ohtawa, M; Yamazaki, H; Matsuda, D; Ohshiro, T; Rudel, LL; Omura, S; Tomoda, H; Nagamitsu, T

> <Institution>
Kitasato University

> <Link to Ligand in BindingDB>
http://www.bindingdb.org/bind/chemsearch/marvin/MolStructure.jsp?monomerid=50433218

> <Link to Target in BindingDB>
http://www.bindingdb.org/jsp/dbsearch/PrimarySearch_ki.jsp?energyterm=kJ/mole&tag=pol&polymerid=7773&target=Sterol+O-acyltransferase+2&column=ki&startPg=0&Increment=50&submit=Search

> <Link to Ligand-Target Pair in BindingDB>
http://www.bindingdb.org/jsp/dbsearch/PrimarySearch_ki.jsp?energyterm=kJ/mole&tag=r21&monomerid=50433218&enzyme=Sterol+O-acyltransferase+2&column=ki&startPg=0&Increment=50&submit=Search

> <Ligand HET ID in PDB>


> <PDB ID(s) for Ligand-Target Complex>


> <PubChem CID>
73353357

> <PubChem SID>
175445535

> <ChEBI ID of Ligand>


> <ChEMBL ID of Ligand>
CHEMBL2375698

> <DrugBank ID of Ligand>


> <IUPHAR_GRAC ID of Ligand>


> <KEGG ID of Ligand>


> <ZINC ID of Ligand>
ZINC96258637

> <Number of Protein Chains in Target (>1 implies a multichain complex)>
1

> <BindingDB Target Chain Sequence>
MEPGGARLRLQRTEGLGGERERQPCGDGNTETHRAPDLVQWTRHMEAVKAQLLEQAQGQLRELLDRAMREAIQSYPSQDKPLPPPPPGSLSRTQEPSLGKQKVFIIRKSLLDELMEVQHFRTIYHMFIAGLCVFIISTLAIDFIDEGRLLLEFDLLIFSFGQLPLALVTWVPMFLSTLLAPYQALRLWARGTWTQATGLGCALLAAHAVVLCALPVHVAVEHQLPPASRCVLVFEQVRFLMKSYSFLREAVPGTLRARRGEGIQAPSFSSYLYFLFCPTLIYRETYPRTPYVRWNYVAKNFAQALGCVLYACFILGRLCVPVFANMSREPFSTRALVLSILHATLPGIFMLLLIFFAFLHCWLNAFAEMLRFGDRMFYRDWWNSTSFSNYYRTWNVVVHDWLYSYVYQDGLRLLGARARGVAMLGVFLVSAVAHEYIFCFVLGFFYPVMLILFLVIGGMLNFMMHDQRTGPAWNVLMWTMLFLGQGIQVSLYCQEWYARRHCPLPQATFWGLVTPRSWSCHT

> <PDB ID(s) of Target Chain>


> <UniProt (SwissProt) Recommended Name of Target Chain>
Sterol O-acyltransferase 2

> <UniProt (SwissProt) Entry Name of Target Chain>
ACAT-2

> <UniProt (SwissProt) Primary ID of Target Chain>
O75908

> <UniProt (SwissProt) Secondary ID(s) of Target Chain>
F5H7W4 I6L9H9 Q4VB99 Q4VBA1 Q96TD4 Q9UNR2

> <UniProt (SwissProt) Alternative ID(s) of Target Chain>


> <UniProt (TrEMBL) Submitted Name of Target Chain>


> <UniProt (TrEMBL) Entry Name of Target Chain>


> <UniProt (TrEMBL) Primary ID of Target Chain>


> <UniProt (TrEMBL) Secondary ID(s) of Target Chain>


> <UniProt (TrEMBL) Alternative ID(s) of Target Chain>


$$$$

  Mrv0541 11241417312D          

 43 47  0  0  0  0            999 V2000
    4.2292  -16.3419    0.0000 C   0  0  0  0  0  0  0  0  0  0  0  0
    3.8209  -15.6294    0.0000 C   0  0  1  0  0  0  0  0  0  0  0  0
    3.4080  -16.3393    0.0000 C   0  0  0  0  0  0  0  0  0  0  0  0
    3.1125  -14.3961    0.0000 C   0  0  0  0  0  0  0  0  0  0  0  0
    3.1125  -15.2211    0.0000 C   0  0  2  0  0  0  0  0  0  0  0  0
    3.8246  -13.9794    0.0000 C   0  0  0  0  0  0  0  0  0  0  0  0
    4.5366  -14.3961    0.0000 C   0  0  1  0  0  0  0  0  0  0  0  0
    4.5376  -15.2211    0.0000 C   0  0  1  0  0  0  0  0  0  0  0  0
    5.2488  -15.6304    0.0000 C   0  0  0  0  0  0  0  0  0  0  0  0
    5.9633  -15.2193    0.0000 C   0  0  1  0  0  0  0  0  0  0  0  0
    5.2466  -13.9803    0.0000 C   0  0  2  0  0  0  0  0  0  0  0  0
    5.9641  -14.3949    0.0000 C   0  0  2  0  0  0  0  0  0  0  0  0
    6.6780  -13.9831    0.0000 O   0  0  0  0  0  0  0  0  0  0  0  0
    5.2429  -13.1540    0.0000 C   0  0  2  0  0  0  0  0  0  0  0  0
    5.9629  -12.7405    0.0000 C   0  0  0  0  0  0  0  0  0  0  0  0
    6.6855  -13.1541    0.0000 C   0  0  0  0  0  0  0  0  0  0  0  0
    7.4011  -12.7375    0.0000 C   0  0  0  0  0  0  0  0  0  0  0  0
    7.4003  -11.9055    0.0000 C   0  0  0  0  0  0  0  0  0  0  0  0
    6.6777  -11.4917    0.0000 O   0  0  0  0  0  0  0  0  0  0  0  0
    5.9559  -11.9101    0.0000 C   0  0  0  0  0  0  0  0  0  0  0  0
    8.1130  -11.4939    0.0000 C   0  0  0  0  0  0  0  0  0  0  0  0
    8.8287  -11.9064    0.0000 C   0  0  0  0  0  0  0  0  0  0  0  0
    9.5418  -11.4930    0.0000 N   0  0  0  0  0  0  0  0  0  0  0  0
    9.5402  -10.6670    0.0000 C   0  0  0  0  0  0  0  0  0  0  0  0
    8.8198  -10.2606    0.0000 C   0  0  0  0  0  0  0  0  0  0  0  0
    8.1098  -10.6722    0.0000 C   0  0  0  0  0  0  0  0  0  0  0  0
    6.6772  -15.6327    0.0000 O   0  0  0  0  0  0  0  0  0  0  0  0
    7.3923  -15.2211    0.0000 C   0  0  0  0  0  0  0  0  0  0  0  0
    8.1062  -15.6345    0.0000 C   0  0  0  0  0  0  0  0  0  0  0  0
    7.3933  -14.3961    0.0000 O   0  0  0  0  0  0  0  0  0  0  0  0
    5.2393  -11.5012    0.0000 O   0  0  0  0  0  0  0  0  0  0  0  0
    4.5279  -12.7423    0.0000 O   0  0  0  0  0  0  0  0  0  0  0  0
    4.5292  -13.5711    0.0000 C   0  0  0  0  0  0  0  0  0  0  0  0
    5.9584  -13.5669    0.0000 C   0  0  0  0  0  0  0  0  0  0  0  0
    2.3986  -15.6346    0.0000 O   0  0  0  0  0  0  0  0  0  0  0  0
    1.6836  -15.2231    0.0000 C   0  0  0  0  0  0  0  0  0  0  0  0
    0.9720  -15.6366    0.0000 C   0  0  0  0  0  0  0  0  0  0  0  0
    1.6823  -14.3981    0.0000 O   0  0  0  0  0  0  0  0  0  0  0  0
    2.5830  -16.3367    0.0000 O   0  0  0  0  0  0  0  0  0  0  0  0
    2.1683  -17.0498    0.0000 C   0  0  0  0  0  0  0  0  0  0  0  0
    1.3432  -17.0472    0.0000 O   0  0  0  0  0  0  0  0  0  0  0  0
    2.5784  -17.7656    0.0000 C   0  0  0  0  0  0  0  0  0  0  0  0
    0.2563  -15.2262    0.0000 C   0  0  0  0  0  0  0  0  0  0  0  0
  2  1  1  1  0  0  0
  2  3  1  6  0  0  0
  5  4  1  0  0  0  0
  4  6  1  0  0  0  0
  2  5  1  0  0  0  0
  8  2  1  0  0  0  0
  7  6  1  0  0  0  0
  7  8  1  0  0  0  0
 11  7  1  1  0  0  0
  8  9  1  1  0  0  0
 10  9  1  0  0  0  0
 12 10  1  0  0  0  0
 11 12  1  0  0  0  0
 11 14  1  0  0  0  0
 12 13  1  0  0  0  0
 13 16  1  0  0  0  0
 14 15  1  0  0  0  0
 15 16  2  0  0  0  0
 15 20  1  0  0  0  0
 16 17  1  0  0  0  0
 17 18  2  0  0  0  0
 18 19  1  0  0  0  0
 19 20  1  0  0  0  0
 21 22  2  0  0  0  0
 22 23  1  0  0  0  0
 23 24  2  0  0  0  0
 24 25  1  0  0  0  0
 25 26  2  0  0  0  0
 26 21  1  0  0  0  0
 18 21  1  0  0  0  0
 10 27  1  1  0  0  0
 27 28  1  0  0  0  0
 28 29  1  0  0  0  0
 28 30  2  0  0  0  0
 20 31  2  0  0  0  0
 14 32  1  1  0  0  0
  7 33  1  1  0  0  0
 12 34  1  1  0  0  0
  5 35  1  1  0  0  0
 35 36  1  0  0  0  0
 36 37  1  0  0  0  0
 36 38  2  0  0  0  0
  3 39  1  0  0  0  0
 39 40  1  0  0  0  0
 40 41  2  0  0  0  0
 40 42  1  0  0  0  0
 37 43  1  0  0  0  0
M  END
> <From>
www.bindingDB.org

> <BindingDB Reactant_set_id>
51061813

> <Ligand InChI>
InChI=1S/C32H39NO10/c1-7-25(36)42-23-10-11-30(4)22(31(23,5)16-39-17(2)34)14-24(40-18(3)35)32(6)28(30)27(37)26-21(43-32)13-20(41-29(26)38)19-9-8-12-33-15-19/h8-9,12-13,15,22-24,27-28,37H,7,10-11,14,16H2,1-6H3/t22-,23+,24+,27+,28-,30+,31+,32-/m1/s1

> <Ligand InChI Key>
ORMKQTVTTFTZHC-NIGCWPKYSA-N

> <BindingDB MonomerID>
50433217

> <BindingDB Ligand Name>
CHEMBL2375693

> <Target Name>
Sterol O-acyltransferase 2

> <Target Source Organism According to Curator or DataSource>


> <Ki (nM)>


> <IC50 (nM)>
 897

> <Kd (nM)>


> <EC50 (nM)>


> <kon (M-1-s-1)>


> <koff (s-1)>


> <pH>


> <Temp (C)>


> <Curation/DataSource>
ChEMBL

> <Article DOI>
10.1016/j.bmcl.2013.02.088

> <BindingDB Entry DOI>
10.7270/Q20866P3

> <PMID>
23535327

> <PubChem AID>


> <Patent Number>


> <Authors>
Ohtawa, M; Yamazaki, H; Matsuda, D; Ohshiro, T; Rudel, LL; Omura, S; Tomoda, H; Nagamitsu, T

> <Institution>
Kitasato University

> <Link to Ligand in BindingDB>
http://www.bindingdb.org/bind/chemsearch/marvin/MolStructure.jsp?monomerid=50433217

> <Link to Target in BindingDB>
http://www.bindingdb.org/jsp/dbsearch/PrimarySearch_ki.jsp?energyterm=kJ/mole&tag=pol&polymerid=7773&target=Sterol+O-acyltransferase+2&column=ki&startPg=0&Increment=50&submit=Search

> <Link to Ligand-Target Pair in BindingDB>
http://www.bindingdb.org/jsp/dbsearch/PrimarySearch_ki.jsp?energyterm=kJ/mole&tag=r21&monomerid=50433217&enzyme=Sterol+O-acyltransferase+2&column=ki&startPg=0&Increment=50&submit=Search

> <Ligand HET ID in PDB>


> <PDB ID(s) for Ligand-Target Complex>


> <PubChem CID>
73347283

> <PubChem SID>
175445534

> <ChEBI ID of Ligand>


> <ChEMBL ID of Ligand>
CHEMBL2375693

> <DrugBank ID of Ligand>


> <IUPHAR_GRAC ID of Ligand>


> <KEGG ID of Ligand>


> <ZINC ID of Ligand>
ZINC03945400

> <Number of Protein Chains in Target (>1 implies a multichain complex)>
1

> <BindingDB Target Chain Sequence>
MEPGGARLRLQRTEGLGGERERQPCGDGNTETHRAPDLVQWTRHMEAVKAQLLEQAQGQLRELLDRAMREAIQSYPSQDKPLPPPPPGSLSRTQEPSLGKQKVFIIRKSLLDELMEVQHFRTIYHMFIAGLCVFIISTLAIDFIDEGRLLLEFDLLIFSFGQLPLALVTWVPMFLSTLLAPYQALRLWARGTWTQATGLGCALLAAHAVVLCALPVHVAVEHQLPPASRCVLVFEQVRFLMKSYSFLREAVPGTLRARRGEGIQAPSFSSYLYFLFCPTLIYRETYPRTPYVRWNYVAKNFAQALGCVLYACFILGRLCVPVFANMSREPFSTRALVLSILHATLPGIFMLLLIFFAFLHCWLNAFAEMLRFGDRMFYRDWWNSTSFSNYYRTWNVVVHDWLYSYVYQDGLRLLGARARGVAMLGVFLVSAVAHEYIFCFVLGFFYPVMLILFLVIGGMLNFMMHDQRTGPAWNVLMWTMLFLGQGIQVSLYCQEWYARRHCPLPQATFWGLVTPRSWSCHT

> <PDB ID(s) of Target Chain>


> <UniProt (SwissProt) Recommended Name of Target Chain>
Sterol O-acyltransferase 2

> <UniProt (SwissProt) Entry Name of Target Chain>
ACAT-2

> <UniProt (SwissProt) Primary ID of Target Chain>
O75908

> <UniProt (SwissProt) Secondary ID(s) of Target Chain>
F5H7W4 I6L9H9 Q4VB99 Q4VBA1 Q96TD4 Q9UNR2

> <UniProt (SwissProt) Alternative ID(s) of Target Chain>


> <UniProt (TrEMBL) Submitted Name of Target Chain>


> <UniProt (TrEMBL) Entry Name of Target Chain>


> <UniProt (TrEMBL) Primary ID of Target Chain>


> <UniProt (TrEMBL) Secondary ID(s) of Target Chain>


> <UniProt (TrEMBL) Alternative ID(s) of Target Chain>


$$$$

  Mrv0541 11241417312D          

 50 55  0  0  0  0            999 V2000
   25.3039   -7.0874    0.0000 C   0  0  0  0  0  0  0  0  0  0  0  0
   24.8956   -6.3750    0.0000 C   0  0  1  0  0  0  0  0  0  0  0  0
   24.4827   -7.0848    0.0000 C   0  0  0  0  0  0  0  0  0  0  0  0
   24.1873   -5.1416    0.0000 C   0  0  0  0  0  0  0  0  0  0  0  0
   24.1873   -5.9666    0.0000 C   0  0  2  0  0  0  0  0  0  0  0  0
   24.8992   -4.7250    0.0000 C   0  0  0  0  0  0  0  0  0  0  0  0
   25.6112   -5.1416    0.0000 C   0  0  1  0  0  0  0  0  0  0  0  0
   25.6124   -5.9666    0.0000 C   0  0  1  0  0  0  0  0  0  0  0  0
   26.3234   -6.3759    0.0000 C   0  0  0  0  0  0  0  0  0  0  0  0
   27.0379   -5.9648    0.0000 C   0  0  1  0  0  0  0  0  0  0  0  0
   26.3213   -4.7259    0.0000 C   0  0  2  0  0  0  0  0  0  0  0  0
   27.0387   -5.1404    0.0000 C   0  0  2  0  0  0  0  0  0  0  0  0
   27.7526   -4.7286    0.0000 O   0  0  0  0  0  0  0  0  0  0  0  0
   26.3175   -3.8996    0.0000 C   0  0  2  0  0  0  0  0  0  0  0  0
   27.0375   -3.4861    0.0000 C   0  0  0  0  0  0  0  0  0  0  0  0
   27.7602   -3.8997    0.0000 C   0  0  0  0  0  0  0  0  0  0  0  0
   28.4756   -3.4830    0.0000 C   0  0  0  0  0  0  0  0  0  0  0  0
   28.4749   -2.6511    0.0000 C   0  0  0  0  0  0  0  0  0  0  0  0
   27.7523   -2.2375    0.0000 O   0  0  0  0  0  0  0  0  0  0  0  0
   27.0305   -2.6558    0.0000 C   0  0  0  0  0  0  0  0  0  0  0  0
   29.1876   -2.2395    0.0000 C   0  0  0  0  0  0  0  0  0  0  0  0
   29.9032   -2.6521    0.0000 C   0  0  0  0  0  0  0  0  0  0  0  0
   30.6163   -2.2386    0.0000 N   0  0  0  0  0  0  0  0  0  0  0  0
   30.6148   -1.4127    0.0000 C   0  0  0  0  0  0  0  0  0  0  0  0
   29.8943   -1.0063    0.0000 C   0  0  0  0  0  0  0  0  0  0  0  0
   29.1843   -1.4178    0.0000 C   0  0  0  0  0  0  0  0  0  0  0  0
   27.7519   -6.3782    0.0000 O   0  0  0  0  0  0  0  0  0  0  0  0
   28.4668   -5.9666    0.0000 C   0  0  0  0  0  0  0  0  0  0  0  0
   29.1808   -6.3800    0.0000 C   0  0  0  0  0  0  0  0  0  0  0  0
   28.4679   -5.1416    0.0000 O   0  0  0  0  0  0  0  0  0  0  0  0
   26.3140   -2.2469    0.0000 O   0  0  0  0  0  0  0  0  0  0  0  0
   25.6026   -3.4879    0.0000 O   0  0  0  0  0  0  0  0  0  0  0  0
   25.6039   -4.3166    0.0000 C   0  0  0  0  0  0  0  0  0  0  0  0
   27.0331   -4.3125    0.0000 C   0  0  0  0  0  0  0  0  0  0  0  0
   23.4733   -6.3801    0.0000 O   0  0  0  0  0  0  0  0  0  0  0  0
   22.7583   -5.9686    0.0000 C   0  0  0  0  0  0  0  0  0  0  0  0
   22.0467   -6.3822    0.0000 C   0  0  0  0  0  0  0  0  0  0  0  0
   22.7572   -5.1437    0.0000 O   0  0  0  0  0  0  0  0  0  0  0  0
   29.1750   -7.2051    0.0000 C   0  0  0  0  0  0  0  0  0  0  0  0
   29.8881   -7.6185    0.0000 C   0  0  0  0  0  0  0  0  0  0  0  0
   30.6041   -7.2068    0.0000 C   0  0  0  0  0  0  0  0  0  0  0  0
   30.6025   -6.3776    0.0000 C   0  0  0  0  0  0  0  0  0  0  0  0
   29.8888   -5.9680    0.0000 C   0  0  0  0  0  0  0  0  0  0  0  0
   31.3179   -7.6155    0.0000 C   0  0  0  0  0  0  0  0  0  0  0  0
   32.0325   -8.0279    0.0000 N   0  0  0  0  0  0  0  0  0  0  0  0
   23.6577   -7.0822    0.0000 O   0  0  0  0  0  0  0  0  0  0  0  0
   24.8930   -7.8006    0.0000 N   0  0  0  0  0  0  0  0  0  0  0  0
   24.4781   -8.5137    0.0000 C   0  0  0  0  0  0  0  0  0  0  0  0
   23.6531   -8.5111    0.0000 C   0  0  0  0  0  0  0  0  0  0  0  0
   23.2430   -7.7953    0.0000 C   0  0  0  0  0  0  0  0  0  0  0  0
  2  1  1  1  0  0  0
  2  3  1  6  0  0  0
  5  4  1  0  0  0  0
  4  6  1  0  0  0  0
  2  5  1  0  0  0  0
  8  2  1  0  0  0  0
  7  6  1  0  0  0  0
  7  8  1  0  0  0  0
 11  7  1  1  0  0  0
  8  9  1  1  0  0  0
 10  9  1  0  0  0  0
 12 10  1  0  0  0  0
 11 12  1  0  0  0  0
 11 14  1  0  0  0  0
 12 13  1  0  0  0  0
 13 16  1  0  0  0  0
 14 15  1  0  0  0  0
 15 16  2  0  0  0  0
 15 20  1  0  0  0  0
 16 17  1  0  0  0  0
 17 18  2  0  0  0  0
 18 19  1  0  0  0  0
 19 20  1  0  0  0  0
 21 22  2  0  0  0  0
 22 23  1  0  0  0  0
 23 24  2  0  0  0  0
 24 25  1  0  0  0  0
 25 26  2  0  0  0  0
 26 21  1  0  0  0  0
 18 21  1  0  0  0  0
 10 27  1  1  0  0  0
 27 28  1  0  0  0  0
 28 29  1  0  0  0  0
 28 30  2  0  0  0  0
 20 31  2  0  0  0  0
 14 32  1  1  0  0  0
  7 33  1  1  0  0  0
 12 34  1  1  0  0  0
  5 35  1  1  0  0  0
 35 36  1  0  0  0  0
 36 37  1  0  0  0  0
 36 38  2  0  0  0  0
 29 39  2  0  0  0  0
 39 40  1  0  0  0  0
 40 41  2  0  0  0  0
 41 42  1  0  0  0  0
 42 43  2  0  0  0  0
 43 29  1  0  0  0  0
 44 45  3  0  0  0  0
 41 44  1  0  0  0  0
  3 46  2  0  0  0  0
  3 47  1  0  0  0  0
 47 48  1  0  0  0  0
 48 49  1  0  0  0  0
 49 50  1  0  0  0  0
M  END
> <From>
www.bindingDB.org

> <BindingDB Reactant_set_id>
51061811

> <Ligand InChI>
InChI=1S/C38H41N3O9/c1-6-15-41-35(46)37(4)27-18-29(49-33(44)23-11-9-22(19-39)10-12-23)38(5)32(36(27,3)14-13-28(37)47-21(2)42)31(43)30-26(50-38)17-25(48-34(30)45)24-8-7-16-40-20-24/h7-12,16-17,20,27-29,31-32,43H,6,13-15,18H2,1-5H3,(H,41,46)/t27-,28+,29+,31+,32-,36+,37+,38-/m1/s1

> <Ligand InChI Key>
WLHBQCWPZJERMY-TYQYNULBSA-N

> <BindingDB MonomerID>
50433216

> <BindingDB Ligand Name>
CHEMBL2375599

> <Target Name>
Sterol O-acyltransferase 2

> <Target Source Organism According to Curator or DataSource>


> <Ki (nM)>


> <IC50 (nM)>
 1010

> <Kd (nM)>


> <EC50 (nM)>


> <kon (M-1-s-1)>


> <koff (s-1)>


> <pH>


> <Temp (C)>


> <Curation/DataSource>
ChEMBL

> <Article DOI>
10.1016/j.bmcl.2013.02.088

> <BindingDB Entry DOI>
10.7270/Q20866P3

> <PMID>
23535327

> <PubChem AID>


> <Patent Number>


> <Authors>
Ohtawa, M; Yamazaki, H; Matsuda, D; Ohshiro, T; Rudel, LL; Omura, S; Tomoda, H; Nagamitsu, T

> <Institution>
Kitasato University

> <Link to Ligand in BindingDB>
http://www.bindingdb.org/bind/chemsearch/marvin/MolStructure.jsp?monomerid=50433216

> <Link to Target in BindingDB>
http://www.bindingdb.org/jsp/dbsearch/PrimarySearch_ki.jsp?energyterm=kJ/mole&tag=pol&polymerid=7773&target=Sterol+O-acyltransferase+2&column=ki&startPg=0&Increment=50&submit=Search

> <Link to Ligand-Target Pair in BindingDB>
http://www.bindingdb.org/jsp/dbsearch/PrimarySearch_ki.jsp?energyterm=kJ/mole&tag=r21&monomerid=50433216&enzyme=Sterol+O-acyltransferase+2&column=ki&startPg=0&Increment=50&submit=Search

> <Ligand HET ID in PDB>


> <PDB ID(s) for Ligand-Target Complex>


> <PubChem CID>
71602863

> <PubChem SID>
175445533

> <ChEBI ID of Ligand>


> <ChEMBL ID of Ligand>
CHEMBL2375599

> <DrugBank ID of Ligand>


> <IUPHAR_GRAC ID of Ligand>


> <KEGG ID of Ligand>


> <ZINC ID of Ligand>
ZINC96258636

> <Number of Protein Chains in Target (>1 implies a multichain complex)>
1

> <BindingDB Target Chain Sequence>
MEPGGARLRLQRTEGLGGERERQPCGDGNTETHRAPDLVQWTRHMEAVKAQLLEQAQGQLRELLDRAMREAIQSYPSQDKPLPPPPPGSLSRTQEPSLGKQKVFIIRKSLLDELMEVQHFRTIYHMFIAGLCVFIISTLAIDFIDEGRLLLEFDLLIFSFGQLPLALVTWVPMFLSTLLAPYQALRLWARGTWTQATGLGCALLAAHAVVLCALPVHVAVEHQLPPASRCVLVFEQVRFLMKSYSFLREAVPGTLRARRGEGIQAPSFSSYLYFLFCPTLIYRETYPRTPYVRWNYVAKNFAQALGCVLYACFILGRLCVPVFANMSREPFSTRALVLSILHATLPGIFMLLLIFFAFLHCWLNAFAEMLRFGDRMFYRDWWNSTSFSNYYRTWNVVVHDWLYSYVYQDGLRLLGARARGVAMLGVFLVSAVAHEYIFCFVLGFFYPVMLILFLVIGGMLNFMMHDQRTGPAWNVLMWTMLFLGQGIQVSLYCQEWYARRHCPLPQATFWGLVTPRSWSCHT

> <PDB ID(s) of Target Chain>


> <UniProt (SwissProt) Recommended Name of Target Chain>
Sterol O-acyltransferase 2

> <UniProt (SwissProt) Entry Name of Target Chain>
ACAT-2

> <UniProt (SwissProt) Primary ID of Target Chain>
O75908

> <UniProt (SwissProt) Secondary ID(s) of Target Chain>
F5H7W4 I6L9H9 Q4VB99 Q4VBA1 Q96TD4 Q9UNR2

> <UniProt (SwissProt) Alternative ID(s) of Target Chain>


> <UniProt (TrEMBL) Submitted Name of Target Chain>


> <UniProt (TrEMBL) Entry Name of Target Chain>


> <UniProt (TrEMBL) Primary ID of Target Chain>


> <UniProt (TrEMBL) Secondary ID(s) of Target Chain>


> <UniProt (TrEMBL) Alternative ID(s) of Target Chain>


$$$$

  SciTegic09261414462D

 36 40  0  0  0  0            999 V2000
   26.7100   -4.4037    0.0000 C   0  0
   26.7089   -5.2233    0.0000 C   0  0
   27.4169   -5.6322    0.0000 C   0  0
   27.4151   -3.9949    0.0000 N   0  0
   28.1237   -4.4001    0.0000 C   0  0
   28.1245   -5.2191    0.0000 C   0  0
   28.8330   -5.6262    0.0000 C   0  0
   29.5413   -5.2154    0.0000 C   0  0
   29.5366   -4.3932    0.0000 C   0  0
   28.8275   -3.9899    0.0000 C   0  0
   27.4188   -6.4494    0.0000 C   0  0
   26.7120   -6.8596    0.0000 N   0  0
   28.1275   -6.8564    0.0000 O   0  0
   26.0034   -6.4527    0.0000 C   0  0
   26.0020   -5.6362    0.0000 C   0  0
   25.2941   -5.2294    0.0000 C   0  0
   24.5864   -5.6397    0.0000 C   0  0
   24.5909   -6.4611    0.0000 C   0  0
   25.2993   -6.8643    0.0000 C   0  0
   30.2418   -3.9803    0.0000 C   0  0
   30.9528   -4.3901    0.0000 C   0  0
   31.6576   -3.9779    0.0000 C   0  0
   31.6530   -3.1598    0.0000 C   0  0
   30.9379   -2.7558    0.0000 C   0  0
   30.2361   -3.1703    0.0000 C   0  0
   32.3577   -2.7460    0.0000 C   0  0  2  0  0  0
   33.0707   -3.1532    0.0000 C   0  0
   33.7733   -2.7429    0.0000 C   0  0
   33.7715   -1.9253    0.0000 C   0  0  2  0  0  0
   33.0609   -1.5198    0.0000 C   0  0
   32.3522   -1.9319    0.0000 C   0  0
   34.4777   -1.5142    0.0000 C   0  0
   35.1869   -1.9202    0.0000 C   0  0
   35.1895   -2.7347    0.0000 O   0  0
   35.8928   -1.5064    0.0000 O   0  0
   26.0022   -3.9953    0.0000 C   0  0
  1  2  2  0
  2  3  1  0
  3  6  2  0
  5  4  2  0
  4  1  1  0
  5  6  1  0
  6  7  1  0
  7  8  2  0
  8  9  1  0
  9 10  2  0
 10  5  1  0
  3 11  1  0
 11 12  1  0
 11 13  2  0
 12 14  1  0
 14 15  2  0
 15 16  1  0
 16 17  2  0
 17 18  1  0
 18 19  2  0
 19 14  1  0
  9 20  1  0
 20 21  2  0
 21 22  1  0
 22 23  2  0
 23 24  1  0
 24 25  2  0
 25 20  1  0
 26 23  1  1
 26 27  1  0
 26 31  1  0
 27 28  1  0
 28 29  1  0
 29 30  1  0
 30 31  1  0
 29 32  1  6
 32 33  1  0
 33 34  1  0
 33 35  2  0
  1 36  1  0
M  END
> <From>
www.bindingDB.org

> <BindingDB Reactant_set_id>
50088730

> <Ligand InChI>
InChI=1S/C31H30N2O3/c1-20-17-28(31(36)33-26-5-3-2-4-6-26)27-16-15-25(19-29(27)32-20)24-13-11-23(12-14-24)22-9-7-21(8-10-22)18-30(34)35/h2-6,11-17,19,21-22H,7-10,18H2,1H3,(H,33,36)(H,34,35)/t21-,22-

> <Ligand InChI Key>
DWNZVBRWWMFCAO-HZCBDIJESA-N

> <BindingDB MonomerID>
50009444

> <BindingDB Ligand Name>
CHEMBL3233888

> <Target Name>
Sterol O-acyltransferase 2

> <Target Source Organism According to Curator or DataSource>


> <Ki (nM)>


> <IC50 (nM)>
 1100

> <Kd (nM)>


> <EC50 (nM)>


> <kon (M-1-s-1)>


> <koff (s-1)>


> <pH>


> <Temp (C)>


> <Curation/DataSource>
ChEMBL

> <Article DOI>
10.1016/j.bmcl.2014.02.028

> <BindingDB Entry DOI>
10.7270/Q2DR2X19

> <PMID>
24618302

> <PubChem AID>


> <Patent Number>


> <Authors>
Zhou, G; Ting, PC; Wishart, G; Zorn, N; Aslanian, RG; Lin, M; Smith, M; Walker, SS; Cook, J; Van Heek, M; Lachowicz, J

> <Institution>
Merck Research Laboratories

> <Link to Ligand in BindingDB>
http://www.bindingdb.org/bind/chemsearch/marvin/MolStructure.jsp?monomerid=50009444

> <Link to Target in BindingDB>
http://www.bindingdb.org/jsp/dbsearch/PrimarySearch_ki.jsp?energyterm=kJ/mole&tag=pol&polymerid=7773&target=Sterol+O-acyltransferase+2&column=ki&startPg=0&Increment=50&submit=Search

> <Link to Ligand-Target Pair in BindingDB>
http://www.bindingdb.org/jsp/dbsearch/PrimarySearch_ki.jsp?energyterm=kJ/mole&tag=r21&monomerid=50009444&enzyme=Sterol+O-acyltransferase+2&column=ki&startPg=0&Increment=50&submit=Search

> <Ligand HET ID in PDB>


> <PDB ID(s) for Ligand-Target Complex>


> <PubChem CID>
58064620

> <PubChem SID>
103922456

> <ChEBI ID of Ligand>


> <ChEMBL ID of Ligand>
CHEMBL3233888

> <DrugBank ID of Ligand>


> <IUPHAR_GRAC ID of Ligand>


> <KEGG ID of Ligand>


> <ZINC ID of Ligand>
ZINC13823636

> <Number of Protein Chains in Target (>1 implies a multichain complex)>
1

> <BindingDB Target Chain Sequence>
MEPGGARLRLQRTEGLGGERERQPCGDGNTETHRAPDLVQWTRHMEAVKAQLLEQAQGQLRELLDRAMREAIQSYPSQDKPLPPPPPGSLSRTQEPSLGKQKVFIIRKSLLDELMEVQHFRTIYHMFIAGLCVFIISTLAIDFIDEGRLLLEFDLLIFSFGQLPLALVTWVPMFLSTLLAPYQALRLWARGTWTQATGLGCALLAAHAVVLCALPVHVAVEHQLPPASRCVLVFEQVRFLMKSYSFLREAVPGTLRARRGEGIQAPSFSSYLYFLFCPTLIYRETYPRTPYVRWNYVAKNFAQALGCVLYACFILGRLCVPVFANMSREPFSTRALVLSILHATLPGIFMLLLIFFAFLHCWLNAFAEMLRFGDRMFYRDWWNSTSFSNYYRTWNVVVHDWLYSYVYQDGLRLLGARARGVAMLGVFLVSAVAHEYIFCFVLGFFYPVMLILFLVIGGMLNFMMHDQRTGPAWNVLMWTMLFLGQGIQVSLYCQEWYARRHCPLPQATFWGLVTPRSWSCHT

> <PDB ID(s) of Target Chain>


> <UniProt (SwissProt) Recommended Name of Target Chain>
Sterol O-acyltransferase 2

> <UniProt (SwissProt) Entry Name of Target Chain>
ACAT-2

> <UniProt (SwissProt) Primary ID of Target Chain>
O75908

> <UniProt (SwissProt) Secondary ID(s) of Target Chain>
F5H7W4 I6L9H9 Q4VB99 Q4VBA1 Q96TD4 Q9UNR2

> <UniProt (SwissProt) Alternative ID(s) of Target Chain>


> <UniProt (TrEMBL) Submitted Name of Target Chain>


> <UniProt (TrEMBL) Entry Name of Target Chain>


> <UniProt (TrEMBL) Primary ID of Target Chain>


> <UniProt (TrEMBL) Secondary ID(s) of Target Chain>


> <UniProt (TrEMBL) Alternative ID(s) of Target Chain>


$$$$

  Mrv0541 11241417312D          

 44 48  0  0  0  0            999 V2000
   15.9123  -16.2498    0.0000 C   0  0  0  0  0  0  0  0  0  0  0  0
   15.5040  -15.5373    0.0000 C   0  0  1  0  0  0  0  0  0  0  0  0
   15.0911  -16.2472    0.0000 C   0  0  0  0  0  0  0  0  0  0  0  0
   14.7957  -14.3040    0.0000 C   0  0  0  0  0  0  0  0  0  0  0  0
   14.7957  -15.1290    0.0000 C   0  0  2  0  0  0  0  0  0  0  0  0
   15.5077  -13.8874    0.0000 C   0  0  0  0  0  0  0  0  0  0  0  0
   16.2196  -14.3040    0.0000 C   0  0  1  0  0  0  0  0  0  0  0  0
   16.2208  -15.1290    0.0000 C   0  0  1  0  0  0  0  0  0  0  0  0
   16.9318  -15.5383    0.0000 C   0  0  0  0  0  0  0  0  0  0  0  0
   17.6463  -15.1272    0.0000 C   0  0  1  0  0  0  0  0  0  0  0  0
   16.9297  -13.8883    0.0000 C   0  0  2  0  0  0  0  0  0  0  0  0
   17.6472  -14.3028    0.0000 C   0  0  2  0  0  0  0  0  0  0  0  0
   18.3610  -13.8910    0.0000 O   0  0  0  0  0  0  0  0  0  0  0  0
   16.9259  -13.0620    0.0000 C   0  0  2  0  0  0  0  0  0  0  0  0
   17.6459  -12.6485    0.0000 C   0  0  0  0  0  0  0  0  0  0  0  0
   18.3686  -13.0621    0.0000 C   0  0  0  0  0  0  0  0  0  0  0  0
   19.0841  -12.6455    0.0000 C   0  0  0  0  0  0  0  0  0  0  0  0
   19.0833  -11.8135    0.0000 C   0  0  0  0  0  0  0  0  0  0  0  0
   18.3607  -11.3998    0.0000 O   0  0  0  0  0  0  0  0  0  0  0  0
   17.6390  -11.8181    0.0000 C   0  0  0  0  0  0  0  0  0  0  0  0
   19.7960  -11.4019    0.0000 C   0  0  0  0  0  0  0  0  0  0  0  0
   20.5117  -11.8144    0.0000 C   0  0  0  0  0  0  0  0  0  0  0  0
   21.2247  -11.4010    0.0000 N   0  0  0  0  0  0  0  0  0  0  0  0
   21.2233  -10.5751    0.0000 C   0  0  0  0  0  0  0  0  0  0  0  0
   20.5028  -10.1686    0.0000 C   0  0  0  0  0  0  0  0  0  0  0  0
   19.7927  -10.5802    0.0000 C   0  0  0  0  0  0  0  0  0  0  0  0
   18.3603  -15.5406    0.0000 O   0  0  0  0  0  0  0  0  0  0  0  0
   19.0752  -15.1290    0.0000 C   0  0  0  0  0  0  0  0  0  0  0  0
   19.7892  -15.5424    0.0000 C   0  0  0  0  0  0  0  0  0  0  0  0
   19.0764  -14.3040    0.0000 O   0  0  0  0  0  0  0  0  0  0  0  0
   16.9224  -11.4093    0.0000 O   0  0  0  0  0  0  0  0  0  0  0  0
   16.2110  -12.6503    0.0000 O   0  0  0  0  0  0  0  0  0  0  0  0
   16.2123  -13.4790    0.0000 C   0  0  0  0  0  0  0  0  0  0  0  0
   17.6415  -13.4749    0.0000 C   0  0  0  0  0  0  0  0  0  0  0  0
   14.0818  -15.5425    0.0000 O   0  0  0  0  0  0  0  0  0  0  0  0
   13.3668  -15.1311    0.0000 C   0  0  0  0  0  0  0  0  0  0  0  0
   12.6551  -15.5446    0.0000 C   0  0  0  0  0  0  0  0  0  0  0  0
   13.3656  -14.3061    0.0000 O   0  0  0  0  0  0  0  0  0  0  0  0
   14.2662  -16.2446    0.0000 O   0  0  0  0  0  0  0  0  0  0  0  0
   13.8514  -16.9577    0.0000 C   0  0  0  0  0  0  0  0  0  0  0  0
   13.0264  -16.9551    0.0000 O   0  0  0  0  0  0  0  0  0  0  0  0
   14.2615  -17.6735    0.0000 C   0  0  0  0  0  0  0  0  0  0  0  0
   11.9396  -15.1342    0.0000 C   0  0  0  0  0  0  0  0  0  0  0  0
   12.6576  -16.3696    0.0000 C   0  0  0  0  0  0  0  0  0  0  0  0
  2  1  1  1  0  0  0
  2  3  1  6  0  0  0
  5  4  1  0  0  0  0
  4  6  1  0  0  0  0
  2  5  1  0  0  0  0
  8  2  1  0  0  0  0
  7  6  1  0  0  0  0
  7  8  1  0  0  0  0
 11  7  1  1  0  0  0
  8  9  1  1  0  0  0
 10  9  1  0  0  0  0
 12 10  1  0  0  0  0
 11 12  1  0  0  0  0
 11 14  1  0  0  0  0
 12 13  1  0  0  0  0
 13 16  1  0  0  0  0
 14 15  1  0  0  0  0
 15 16  2  0  0  0  0
 15 20  1  0  0  0  0
 16 17  1  0  0  0  0
 17 18  2  0  0  0  0
 18 19  1  0  0  0  0
 19 20  1  0  0  0  0
 21 22  2  0  0  0  0
 22 23  1  0  0  0  0
 23 24  2  0  0  0  0
 24 25  1  0  0  0  0
 25 26  2  0  0  0  0
 26 21  1  0  0  0  0
 18 21  1  0  0  0  0
 10 27  1  1  0  0  0
 27 28  1  0  0  0  0
 28 29  1  0  0  0  0
 28 30  2  0  0  0  0
 20 31  2  0  0  0  0
 14 32  1  1  0  0  0
  7 33  1  1  0  0  0
 12 34  1  1  0  0  0
  5 35  1  1  0  0  0
 35 36  1  0  0  0  0
 36 37  1  0  0  0  0
 36 38  2  0  0  0  0
  3 39  1  0  0  0  0
 39 40  1  0  0  0  0
 40 41  2  0  0  0  0
 40 42  1  0  0  0  0
 37 43  1  0  0  0  0
 37 44  1  0  0  0  0
M  END
> <From>
www.bindingDB.org

> <BindingDB Reactant_set_id>
51061810

> <Ligand InChI>
InChI=1S/C33H41NO10/c1-17(2)29(38)43-24-10-11-31(5)23(32(24,6)16-40-18(3)35)14-25(41-19(4)36)33(7)28(31)27(37)26-22(44-33)13-21(42-30(26)39)20-9-8-12-34-15-20/h8-9,12-13,15,17,23-25,27-28,37H,10-11,14,16H2,1-7H3/t23-,24+,25+,27+,28-,31+,32+,33-/m1/s1

> <Ligand InChI Key>
VGELTAVHRPURPG-GGOITNCBSA-N

> <BindingDB MonomerID>
50433215

> <BindingDB Ligand Name>
CHEMBL2375694

> <Target Name>
Sterol O-acyltransferase 2

> <Target Source Organism According to Curator or DataSource>


> <Ki (nM)>


> <IC50 (nM)>
 1220

> <Kd (nM)>


> <EC50 (nM)>


> <kon (M-1-s-1)>


> <koff (s-1)>


> <pH>


> <Temp (C)>


> <Curation/DataSource>
ChEMBL

> <Article DOI>
10.1016/j.bmcl.2013.02.088

> <BindingDB Entry DOI>
10.7270/Q20866P3

> <PMID>
23535327

> <PubChem AID>


> <Patent Number>


> <Authors>
Ohtawa, M; Yamazaki, H; Matsuda, D; Ohshiro, T; Rudel, LL; Omura, S; Tomoda, H; Nagamitsu, T

> <Institution>
Kitasato University

> <Link to Ligand in BindingDB>
http://www.bindingdb.org/bind/chemsearch/marvin/MolStructure.jsp?monomerid=50433215

> <Link to Target in BindingDB>
http://www.bindingdb.org/jsp/dbsearch/PrimarySearch_ki.jsp?energyterm=kJ/mole&tag=pol&polymerid=7773&target=Sterol+O-acyltransferase+2&column=ki&startPg=0&Increment=50&submit=Search

> <Link to Ligand-Target Pair in BindingDB>
http://www.bindingdb.org/jsp/dbsearch/PrimarySearch_ki.jsp?energyterm=kJ/mole&tag=r21&monomerid=50433215&enzyme=Sterol+O-acyltransferase+2&column=ki&startPg=0&Increment=50&submit=Search

> <Ligand HET ID in PDB>


> <PDB ID(s) for Ligand-Target Complex>


> <PubChem CID>
10579631

> <PubChem SID>
175445532

> <ChEBI ID of Ligand>


> <ChEMBL ID of Ligand>
CHEMBL2375694

> <DrugBank ID of Ligand>


> <IUPHAR_GRAC ID of Ligand>


> <KEGG ID of Ligand>


> <ZINC ID of Ligand>
ZINC96258634

> <Number of Protein Chains in Target (>1 implies a multichain complex)>
1

> <BindingDB Target Chain Sequence>
MEPGGARLRLQRTEGLGGERERQPCGDGNTETHRAPDLVQWTRHMEAVKAQLLEQAQGQLRELLDRAMREAIQSYPSQDKPLPPPPPGSLSRTQEPSLGKQKVFIIRKSLLDELMEVQHFRTIYHMFIAGLCVFIISTLAIDFIDEGRLLLEFDLLIFSFGQLPLALVTWVPMFLSTLLAPYQALRLWARGTWTQATGLGCALLAAHAVVLCALPVHVAVEHQLPPASRCVLVFEQVRFLMKSYSFLREAVPGTLRARRGEGIQAPSFSSYLYFLFCPTLIYRETYPRTPYVRWNYVAKNFAQALGCVLYACFILGRLCVPVFANMSREPFSTRALVLSILHATLPGIFMLLLIFFAFLHCWLNAFAEMLRFGDRMFYRDWWNSTSFSNYYRTWNVVVHDWLYSYVYQDGLRLLGARARGVAMLGVFLVSAVAHEYIFCFVLGFFYPVMLILFLVIGGMLNFMMHDQRTGPAWNVLMWTMLFLGQGIQVSLYCQEWYARRHCPLPQATFWGLVTPRSWSCHT

> <PDB ID(s) of Target Chain>


> <UniProt (SwissProt) Recommended Name of Target Chain>
Sterol O-acyltransferase 2

> <UniProt (SwissProt) Entry Name of Target Chain>
ACAT-2

> <UniProt (SwissProt) Primary ID of Target Chain>
O75908

> <UniProt (SwissProt) Secondary ID(s) of Target Chain>
F5H7W4 I6L9H9 Q4VB99 Q4VBA1 Q96TD4 Q9UNR2

> <UniProt (SwissProt) Alternative ID(s) of Target Chain>


> <UniProt (TrEMBL) Submitted Name of Target Chain>


> <UniProt (TrEMBL) Entry Name of Target Chain>


> <UniProt (TrEMBL) Primary ID of Target Chain>


> <UniProt (TrEMBL) Secondary ID(s) of Target Chain>


> <UniProt (TrEMBL) Alternative ID(s) of Target Chain>


$$$$

     RDKit          2D

 56 58  0  0  0  0  0  0  0  0999 V2000
    4.6927   -3.6237    0.0000 N   0  0  0  0  0  0  0  0  0  0  0  0
    5.4004   -3.2151    0.0000 C   0  0  0  0  0  0  0  0  0  0  0  0
    3.9850   -3.2151    0.0000 C   0  0  0  0  0  0  0  0  0  0  0  0
    3.2772   -3.6237    0.0000 C   0  0  0  0  0  0  0  0  0  0  0  0
    3.9850   -2.3979    0.0000 O   0  0  0  0  0  0  0  0  0  0  0  0
    2.5695   -3.2151    0.0000 C   0  0  0  0  0  0  0  0  0  0  0  0
    1.8618   -3.6237    0.0000 C   0  0  0  0  0  0  0  0  0  0  0  0
    6.1081   -3.6237    0.0000 C   0  0  0  0  0  0  0  0  0  0  0  0
    5.4004   -2.3979    0.0000 C   0  0  0  0  0  0  0  0  0  0  0  0
    6.1081   -1.9893    0.0000 C   0  0  0  0  0  0  0  0  0  0  0  0
    4.6927   -1.9893    0.0000 C   0  0  0  0  0  0  0  0  0  0  0  0
    6.1081   -4.4409    0.0000 O   0  0  0  0  0  0  0  0  0  0  0  0
    6.8158   -3.2151    0.0000 N   0  0  0  0  0  0  0  0  0  0  0  0
    7.5624   -3.5426    0.0000 C   0  0  0  0  0  0  0  0  0  0  0  0
    8.1092   -2.9353    0.0000 C   0  0  0  0  0  0  0  0  0  0  0  0
    7.7006   -2.2275    0.0000 C   0  0  0  0  0  0  0  0  0  0  0  0
    6.9013   -2.3975    0.0000 C   0  0  0  0  0  0  0  0  0  0  0  0
    7.5570   -4.3584    0.0000 C   0  0  0  0  0  0  0  0  0  0  0  0
    6.8465   -4.7622    0.0000 O   0  0  0  0  0  0  0  0  0  0  0  0
    8.2619   -4.7717    0.0000 N   0  0  0  0  0  0  0  0  0  0  0  0
    8.2565   -5.5888    0.0000 C   0  0  0  0  0  0  0  0  0  0  0  0
    8.9723   -4.3678    0.0000 C   0  0  0  0  0  0  0  0  0  0  0  0
    9.6773   -4.7811    0.0000 C   0  0  0  0  0  0  0  0  0  0  0  0
    8.9778   -3.5506    0.0000 C   0  0  0  0  0  0  0  0  0  0  0  0
    9.6882   -3.1467    0.0000 C   0  0  0  0  0  0  0  0  0  0  0  0
   10.3904   -3.5634    0.0000 C   0  0  0  0  0  0  0  0  0  0  0  0
   11.1003   -3.1602    0.0000 C   0  0  0  0  0  0  0  0  0  0  0  0
   11.1062   -2.3422    0.0000 C   0  0  0  0  0  0  0  0  0  0  0  0
   10.3962   -1.9290    0.0000 C   0  0  0  0  0  0  0  0  0  0  0  0
    9.6892   -2.3346    0.0000 C   0  0  0  0  0  0  0  0  0  0  0  0
    9.6719   -5.5982    0.0000 N   0  0  0  0  0  0  0  0  0  0  0  0
   10.3877   -4.3772    0.0000 O   0  0  0  0  0  0  0  0  0  0  0  0
   10.3768   -6.0115    0.0000 C   0  0  0  0  0  0  0  0  0  0  0  0
   10.3714   -6.8287    0.0000 C   0  0  0  0  0  0  0  0  0  0  0  0
   11.0873   -5.6077    0.0000 C   0  0  0  0  0  0  0  0  0  0  0  0
   11.7922   -6.0210    0.0000 N   0  0  0  0  0  0  0  0  0  0  0  0
   11.0927   -4.7905    0.0000 O   0  0  0  0  0  0  0  0  0  0  0  0
   12.5026   -5.6171    0.0000 C   0  0  0  0  0  0  0  0  0  0  0  0
   13.2076   -6.0304    0.0000 C   0  0  0  0  0  0  0  0  0  0  0  0
   12.5081   -4.7999    0.0000 C   0  0  0  0  0  0  0  0  0  0  0  0
   13.2185   -4.3961    0.0000 C   0  0  0  0  0  0  0  0  0  0  0  0
   11.8031   -4.3866    0.0000 C   0  0  0  0  0  0  0  0  0  0  0  0
   13.2022   -6.8476    0.0000 O   0  0  0  0  0  0  0  0  0  0  0  0
   13.9180   -5.6265    0.0000 N   0  0  0  0  0  0  0  0  0  0  0  0
   14.6230   -6.0398    0.0000 C   0  0  0  0  0  0  0  0  0  0  0  0
   13.9235   -4.8093    0.0000 C   0  0  0  0  0  0  0  0  0  0  0  0
   15.3334   -5.6359    0.0000 C   0  0  0  0  0  0  0  0  0  0  0  0
   16.0780   -5.9706    0.0000 N   0  0  0  0  0  0  0  0  0  0  0  0
   16.6288   -5.3670    0.0000 C   0  0  0  0  0  0  0  0  0  0  0  0
   16.2249   -4.6565    0.0000 C   0  0  0  0  0  0  0  0  0  0  0  0
   15.4245   -4.8212    0.0000 S   0  0  0  0  0  0  0  0  0  0  0  0
    9.6610   -7.2326    0.0000 C   0  0  0  0  0  0  0  0  0  0  0  0
    9.6555   -8.0498    0.0000 C   0  0  0  0  0  0  0  0  0  0  0  0
    8.9560   -6.8193    0.0000 C   0  0  0  0  0  0  0  0  0  0  0  0
    4.6927   -4.4409    0.0000 C   0  0  0  0  0  0  0  0  0  0  0  0
   11.7868   -6.8381    0.0000 C   0  0  0  0  0  0  0  0  0  0  0  0
  1  2  1  0
  1  3  1  0
  3  4  1  0
  3  5  2  0
  4  6  1  0
  6  7  1  0
  2  8  1  0
  2  9  1  1
  9 10  1  0
  9 11  1  0
  8 12  2  0
  8 13  1  0
 13 14  1  0
 14 15  1  0
 15 16  1  0
 16 17  1  0
 17 13  1  0
 14 18  1  1
 18 19  2  0
 18 20  1  0
 20 21  1  0
 20 22  1  0
 22 23  1  0
 22 24  1  1
 24 25  1  0
 25 26  2  0
 26 27  1  0
 27 28  2  0
 28 29  1  0
 29 30  2  0
 30 25  1  0
 23 31  1  0
 23 32  2  0
 31 33  1  0
 33 34  1  6
 33 35  1  0
 35 36  1  0
 35 37  2  0
 36 38  1  0
 38 39  1  0
 38 40  1  1
 40 41  1  0
 40 42  1  0
 39 43  2  0
 39 44  1  0
 44 45  1  0
 44 46  1  0
 45 47  1  0
 47 48  2  0
 48 49  1  0
 49 50  2  0
 50 51  1  0
 51 47  1  0
 34 52  1  0
 52 53  1  0
 52 54  1  0
  1 55  1  0
 36 56  1  0
M  END
> <From>
www.bindingDB.org

> <BindingDB Reactant_set_id>
51105753

> <Ligand InChI>
InChI=1S/C42H65N7O6S/c1-12-17-35(50)47(10)37(29(6)7)42(55)49-22-16-20-32(49)40(53)46(9)33(25-30-18-14-13-15-19-30)38(51)44-31(24-27(2)3)39(52)48(11)36(28(4)5)41(54)45(8)26-34-43-21-23-56-34/h13-15,18-19,21,23,27-29,31-33,36-37H,12,16-17,20,22,24-26H2,1-11H3,(H,44,51)/t31-,32-,33-,36-,37-/m0/s1

> <Ligand InChI Key>
XNASEKUWNLNRSN-LMUGUXCZSA-N

> <BindingDB MonomerID>
50450891

> <BindingDB Ligand Name>
CHEMBL4212280

> <Target Name>
Sterol O-acyltransferase 2

> <Target Source Organism According to Curator or DataSource>


> <Ki (nM)>


> <IC50 (nM)>
 1300

> <Kd (nM)>


> <EC50 (nM)>


> <kon (M-1-s-1)>


> <koff (s-1)>


> <pH>


> <Temp (C)>


> <Curation/DataSource>
ChEMBL

> <Article DOI>
10.1021/acs.jnatprod.7b00137

> <BindingDB Entry DOI>
10.7270/Q2251MS3

> <PMID>
28294609

> <PubChem AID>


> <Patent Number>


> <Authors>
Iwasaki, A; Tadenuma, T; Sumimoto, S; Ohshiro, T; Ozaki, K; Kobayashi, K; Teruya, T; Tomoda, H; Suenaga, K

> <Institution>
Keio University

> <Link to Ligand in BindingDB>
http://www.bindingdb.org/bind/chemsearch/marvin/MolStructure.jsp?monomerid=50450891

> <Link to Target in BindingDB>
http://www.bindingdb.org/jsp/dbsearch/PrimarySearch_ki.jsp?energyterm=kJ/mole&tag=pol&polymerid=50007205&target=Sterol+O-acyltransferase+2&column=ki&startPg=0&Increment=50&submit=Search

> <Link to Ligand-Target Pair in BindingDB>
http://www.bindingdb.org/jsp/dbsearch/PrimarySearch_ki.jsp?energyterm=kJ/mole&tag=r21&monomerid=50450891&enzyme=Sterol+O-acyltransferase+2&column=ki&startPg=0&Increment=50&submit=Search

> <Ligand HET ID in PDB>


> <PDB ID(s) for Ligand-Target Complex>


> <PubChem CID>
137628581

> <PubChem SID>
433920233

> <ChEBI ID of Ligand>


> <ChEMBL ID of Ligand>


> <DrugBank ID of Ligand>


> <IUPHAR_GRAC ID of Ligand>


> <KEGG ID of Ligand>


> <ZINC ID of Ligand>


> <Number of Protein Chains in Target (>1 implies a multichain complex)>
1

> <BindingDB Target Chain Sequence>
MEPGGARLRLQRTEGPGGEREHQPCRDGNTETHRAPDLVKWTRHMEAVKAQLLEQAQGQLRELLDRAMWEAIQSYPSQDKPPPLPPPDSLSRTQEPSLGKQKVFIIRKSLLDELMEVQHFRTIYHMFIAGLCVFIISTLAIDFIDEGRLLLEFDLLIFSFGQLPLALVTWVPMFLSTLLAPYQALRLWARPGARGTWTLGAGLGCALLAAHALVLCALPVHVAVEHQLPPASRCVLVFEQVRFLMKSYSFLREAVPGTLRARRGEGIQAPSFSSYLYFLFCPTLIYRETYPRTPYIRWNYVAKNFAQALGCVLYACFILGRLCVPVFANMSREPFSTRALVLSILHATLPGIFMLLLIFFAFLHCWLNAFAEMLRFGDRMFYRDWWNSTSFSNYYRTWNVVVHDWLYSYVYQDGLWLLGAQARGVAMLGVFLVSAVAHEYIFCFVLGFFYPVMLILFLVIGGMLNFMMHDQHTGPAWNVLMWTMLFLGQGIQVSLYCQEWYARRHCPLPQTTFWGLVTPRSWSCHT

> <PDB ID(s) of Target Chain>


> <UniProt (SwissProt) Recommended Name of Target Chain>
Sterol O-acyltransferase 2

> <UniProt (SwissProt) Entry Name of Target Chain>
ACAT-2

> <UniProt (SwissProt) Primary ID of Target Chain>
O77759

> <UniProt (SwissProt) Secondary ID(s) of Target Chain>


> <UniProt (SwissProt) Alternative ID(s) of Target Chain>


> <UniProt (TrEMBL) Submitted Name of Target Chain>


> <UniProt (TrEMBL) Entry Name of Target Chain>


> <UniProt (TrEMBL) Primary ID of Target Chain>


> <UniProt (TrEMBL) Secondary ID(s) of Target Chain>


> <UniProt (TrEMBL) Alternative ID(s) of Target Chain>


$$$$
00028001.cdx
  Mrv0541 06191611392D          

 34 36  0  0  0  0            999 V2000
   -3.9849    0.6187    0.0000 C   0  0  0  0  0  0  0  0  0  0  0  0
   -3.9849   -0.2062    0.0000 C   0  0  0  0  0  0  0  0  0  0  0  0
   -3.2704   -0.6187    0.0000 C   0  0  0  0  0  0  0  0  0  0  0  0
   -2.5559   -0.2062    0.0000 C   0  0  0  0  0  0  0  0  0  0  0  0
   -3.2704    1.0313    0.0000 C   0  0  0  0  0  0  0  0  0  0  0  0
   -3.2704   -1.4437    0.0000 C   0  0  0  0  0  0  0  0  0  0  0  0
   -2.5559   -1.8563    0.0000 C   0  0  0  0  0  0  0  0  0  0  0  0
   -3.9849   -1.8563    0.0000 C   0  0  0  0  0  0  0  0  0  0  0  0
   -1.0164    1.0313    0.0000 O   0  0  0  0  0  0  0  0  0  0  0  0
   -1.7309   -0.2062    0.0000 N   0  0  0  0  0  0  0  0  0  0  0  0
   -1.0164    0.2062    0.0000 C   0  0  0  0  0  0  0  0  0  0  0  0
   -0.3020   -0.2062    0.0000 C   0  0  0  0  0  0  0  0  0  0  0  0
    0.4125    0.2062    0.0000 C   0  0  0  0  0  0  0  0  0  0  0  0
    1.1270   -0.2062    0.0000 C   0  0  0  0  0  0  0  0  0  0  0  0
    0.4125    1.0313    0.0000 O   0  0  0  0  0  0  0  0  0  0  0  0
    1.8414    0.2062    0.0000 C   0  0  0  0  0  0  0  0  0  0  0  0
    1.8414    1.0313    0.0000 C   0  0  0  0  0  0  0  0  0  0  0  0
    2.5559    1.4437    0.0000 C   0  0  0  0  0  0  0  0  0  0  0  0
    2.5559    2.2687    0.0000 C   0  0  0  0  0  0  0  0  0  0  0  0
    1.8414    2.6812    0.0000 C   0  0  0  0  0  0  0  0  0  0  0  0
    1.1270    2.2687    0.0000 C   0  0  0  0  0  0  0  0  0  0  0  0
    1.1270    1.4437    0.0000 C   0  0  0  0  0  0  0  0  0  0  0  0
    1.1270   -1.0313    0.0000 C   0  0  0  0  0  0  0  0  0  0  0  0
    1.8414   -1.4437    0.0000 C   0  0  0  0  0  0  0  0  0  0  0  0
    1.8414   -2.2687    0.0000 C   0  0  0  0  0  0  0  0  0  0  0  0
    2.5559   -2.6812    0.0000 C   0  0  0  0  0  0  0  0  0  0  0  0
    3.2704   -2.2687    0.0000 C   0  0  0  0  0  0  0  0  0  0  0  0
    3.2704   -1.4437    0.0000 C   0  0  0  0  0  0  0  0  0  0  0  0
    2.5559   -1.0313    0.0000 C   0  0  0  0  0  0  0  0  0  0  0  0
   -2.1434    1.3332    0.0000 C   0  0  0  0  0  0  0  0  0  0  0  0
   -1.3184    1.3332    0.0000 C   0  0  0  0  0  0  0  0  0  0  0  0
   -2.5559    0.6187    0.0000 C   0  0  0  0  0  0  0  0  0  0  0  0
   -2.5559    2.0477    0.0000 C   0  0  0  0  0  0  0  0  0  0  0  0
    3.9849   -2.6812    0.0000 O   0  0  0  0  0  0  0  0  0  0  0  0
  1  2  4  0  0  0  0
  2  3  4  0  0  0  0
  3  4  4  0  0  0  0
  4 32  4  0  0  0  0
 32  5  4  0  0  0  0
  5  1  4  0  0  0  0
  3  6  1  0  0  0  0
  6  7  1  0  0  0  0
  6  8  1  0  0  0  0
  4 10  1  0  0  0  0
 10 11  1  0  0  0  0
 11 12  1  0  0  0  0
 11  9  2  0  0  0  0
 12 13  1  0  0  0  0
 13 14  1  0  0  0  0
 13 15  2  0  0  0  0
 14 16  1  0  0  0  0
 16 17  1  0  0  0  0
 17 18  4  0  0  0  0
 18 19  4  0  0  0  0
 19 20  4  0  0  0  0
 20 21  4  0  0  0  0
 21 22  4  0  0  0  0
 22 17  4  0  0  0  0
 14 23  1  0  0  0  0
 23 24  1  0  0  0  0
 24 25  4  0  0  0  0
 25 26  4  0  0  0  0
 26 27  4  0  0  0  0
 27 28  4  0  0  0  0
 28 29  4  0  0  0  0
 29 24  4  0  0  0  0
 30 31  1  0  0  0  0
 30 32  1  0  0  0  0
 30 33  1  0  0  0  0
 27 34  1  0  0  0  0
M  END
> <From>
www.bindingDB.org

> <BindingDB Reactant_set_id>
330434

> <Ligand InChI>
InChI=1S/C30H35NO3/c1-20(2)26-11-8-12-27(21(3)4)30(26)31-29(34)19-28(33)24(17-22-9-6-5-7-10-22)18-23-13-15-25(32)16-14-23/h5-16,20-21,24,32H,17-19H2,1-4H3,(H,31,34)

> <Ligand InChI Key>
AYQKSEDWAPITKW-UHFFFAOYSA-N

> <BindingDB MonomerID>
182850

> <BindingDB Ligand Name>
US9149492, Compound 1B

> <Target Name>
Sterol O-acyltransferase 2

> <Target Source Organism According to Curator or DataSource>


> <Ki (nM)>


> <IC50 (nM)>
 1500

> <Kd (nM)>


> <EC50 (nM)>


> <kon (M-1-s-1)>


> <koff (s-1)>


> <pH>


> <Temp (C)>


> <Curation/DataSource>
US Patent

> <Article DOI>


> <BindingDB Entry DOI>
10.7270/Q2N015BF

> <PMID>


> <PubChem AID>
aid1801692

> <Patent Number>
US9149492

> <Authors>
Chang, T; Chang, CC; Shibuya, Y; Bryleva, E; Murphy, S; Rogers, MA

> <Institution>
Dartmouth College

> <Link to Ligand in BindingDB>
http://www.bindingdb.org/bind/chemsearch/marvin/MolStructure.jsp?monomerid=182850

> <Link to Target in BindingDB>
http://www.bindingdb.org/jsp/dbsearch/PrimarySearch_ki.jsp?energyterm=kJ/mole&tag=pol&polymerid=7773&target=Sterol+O-acyltransferase+2&column=ki&startPg=0&Increment=50&submit=Search

> <Link to Ligand-Target Pair in BindingDB>
http://www.bindingdb.org/jsp/dbsearch/PrimarySearch_ki.jsp?energyterm=kJ/mole&tag=r21&monomerid=182850&enzyme=Sterol+O-acyltransferase+2&column=ki&startPg=0&Increment=50&submit=Search

> <Ligand HET ID in PDB>


> <PDB ID(s) for Ligand-Target Complex>


> <PubChem CID>
89968520

> <PubChem SID>
313634373

> <ChEBI ID of Ligand>


> <ChEMBL ID of Ligand>


> <DrugBank ID of Ligand>


> <IUPHAR_GRAC ID of Ligand>


> <KEGG ID of Ligand>


> <ZINC ID of Ligand>


> <Number of Protein Chains in Target (>1 implies a multichain complex)>
1

> <BindingDB Target Chain Sequence>
MEPGGARLRLQRTEGLGGERERQPCGDGNTETHRAPDLVQWTRHMEAVKAQLLEQAQGQLRELLDRAMREAIQSYPSQDKPLPPPPPGSLSRTQEPSLGKQKVFIIRKSLLDELMEVQHFRTIYHMFIAGLCVFIISTLAIDFIDEGRLLLEFDLLIFSFGQLPLALVTWVPMFLSTLLAPYQALRLWARGTWTQATGLGCALLAAHAVVLCALPVHVAVEHQLPPASRCVLVFEQVRFLMKSYSFLREAVPGTLRARRGEGIQAPSFSSYLYFLFCPTLIYRETYPRTPYVRWNYVAKNFAQALGCVLYACFILGRLCVPVFANMSREPFSTRALVLSILHATLPGIFMLLLIFFAFLHCWLNAFAEMLRFGDRMFYRDWWNSTSFSNYYRTWNVVVHDWLYSYVYQDGLRLLGARARGVAMLGVFLVSAVAHEYIFCFVLGFFYPVMLILFLVIGGMLNFMMHDQRTGPAWNVLMWTMLFLGQGIQVSLYCQEWYARRHCPLPQATFWGLVTPRSWSCHT

> <PDB ID(s) of Target Chain>


> <UniProt (SwissProt) Recommended Name of Target Chain>
Sterol O-acyltransferase 2

> <UniProt (SwissProt) Entry Name of Target Chain>
ACAT-2

> <UniProt (SwissProt) Primary ID of Target Chain>
O75908

> <UniProt (SwissProt) Secondary ID(s) of Target Chain>
F5H7W4 I6L9H9 Q4VB99 Q4VBA1 Q96TD4 Q9UNR2

> <UniProt (SwissProt) Alternative ID(s) of Target Chain>


> <UniProt (TrEMBL) Submitted Name of Target Chain>


> <UniProt (TrEMBL) Entry Name of Target Chain>


> <UniProt (TrEMBL) Primary ID of Target Chain>


> <UniProt (TrEMBL) Secondary ID(s) of Target Chain>


> <UniProt (TrEMBL) Alternative ID(s) of Target Chain>


$$$$

  SciTegic12221714242D

 27 30  0  0  0  0            999 V2000
    4.2841  -16.4842    0.0000 C   0  0  2  0  0  0
    5.0724  -16.2695    0.0000 C   0  0
    5.2795  -15.4839    0.0000 C   0  0
    4.7015  -14.9073    0.0000 C   0  0
    3.9132  -15.1220    0.0000 C   0  0  2  0  0  0
    3.7029  -15.9131    0.0000 O   0  0
    2.0911  -16.7441    0.0000 C   0  0
    2.0899  -17.5637    0.0000 C   0  0
    2.7980  -17.9726    0.0000 C   0  0
    2.7962  -16.3353    0.0000 C   0  0
    3.5048  -16.7405    0.0000 C   0  0
    3.5051  -17.5637    0.0000 C   0  0
    4.2880  -17.8179    0.0000 N   0  0
    4.7718  -17.1517    0.0000 C   0  0
    5.5889  -17.1514    0.0000 O   0  0
    3.3336  -14.5459    0.0000 C   0  0
    2.5449  -14.7597    0.0000 C   0  0
    1.9654  -14.1836    0.0000 C   0  0
    6.0683  -15.2703    0.0000 N   0  0
    6.6476  -15.8466    0.0000 O   0  0
    7.4364  -15.6331    0.0000 C   0  0
    8.0158  -16.2094    0.0000 C   0  0
    7.8032  -16.9977    0.0000 C   0  0
    8.3818  -17.5738    0.0000 C   0  0
    9.1715  -17.3604    0.0000 C   0  0
    9.3795  -16.5657    0.0000 C   0  0
    8.7994  -15.9931    0.0000 C   0  0
  1  2  1  0
  1  6  1  0
  2  3  1  0
  3  4  1  0
  4  5  1  0
  5  6  1  0
  7  8  2  0
  8  9  1  0
  9 12  2  0
 11 10  2  0
 10  7  1  0
 11 12  1  0
 12 13  1  0
 13 14  1  0
 14  1  1  0
  1 11  1  1
 14 15  2  0
  5 16  1  6
 16 17  1  0
 17 18  1  0
  3 19  2  0
 19 20  1  0
 20 21  1  0
 21 22  1  0
 22 23  2  0
 23 24  1  0
 24 25  2  0
 25 26  1  0
 26 27  2  0
 27 22  1  0
M  END
> <From>
www.bindingDB.org

> <BindingDB Reactant_set_id>
50533665

> <Ligand InChI>
InChI=1S/C22H24N2O3/c1-2-8-18-13-17(24-26-15-16-9-4-3-5-10-16)14-22(27-18)19-11-6-7-12-20(19)23-21(22)25/h3-7,9-12,18H,2,8,13-15H2,1H3,(H,23,25)/b24-17-/t18-,22+/m1/s1

> <Ligand InChI Key>
PVYMEAANGXOWGU-FVHXMZMJSA-N

> <BindingDB MonomerID>
50204552

> <BindingDB Ligand Name>
CHEMBL3959948

> <Target Name>
Sterol O-acyltransferase 2

> <Target Source Organism According to Curator or DataSource>


> <Ki (nM)>


> <IC50 (nM)>
 1500

> <Kd (nM)>


> <EC50 (nM)>


> <kon (M-1-s-1)>


> <koff (s-1)>


> <pH>


> <Temp (C)>


> <Curation/DataSource>
ChEMBL

> <Article DOI>
10.1016/j.bmcl.2016.11.008

> <BindingDB Entry DOI>
10.7270/Q2D220KD

> <PMID>
27876317

> <PubChem AID>


> <Patent Number>


> <Authors>
Kobayashi, K; Ohshiro, T; Tomoda, H; Yin, F; Cui, HL; Chouthaiwale, PV; Tanaka, F

> <Institution>
Kitasato University

> <Link to Ligand in BindingDB>
http://www.bindingdb.org/bind/chemsearch/marvin/MolStructure.jsp?monomerid=50204552

> <Link to Target in BindingDB>
http://www.bindingdb.org/jsp/dbsearch/PrimarySearch_ki.jsp?energyterm=kJ/mole&tag=pol&polymerid=50007205&target=Sterol+O-acyltransferase+2&column=ki&startPg=0&Increment=50&submit=Search

> <Link to Ligand-Target Pair in BindingDB>
http://www.bindingdb.org/jsp/dbsearch/PrimarySearch_ki.jsp?energyterm=kJ/mole&tag=r21&monomerid=50204552&enzyme=Sterol+O-acyltransferase+2&column=ki&startPg=0&Increment=50&submit=Search

> <Ligand HET ID in PDB>


> <PDB ID(s) for Ligand-Target Complex>


> <PubChem CID>
134155151

> <PubChem SID>
375980541

> <ChEBI ID of Ligand>


> <ChEMBL ID of Ligand>
CHEMBL3959948

> <DrugBank ID of Ligand>


> <IUPHAR_GRAC ID of Ligand>


> <KEGG ID of Ligand>


> <ZINC ID of Ligand>


> <Number of Protein Chains in Target (>1 implies a multichain complex)>
1

> <BindingDB Target Chain Sequence>
MEPGGARLRLQRTEGPGGEREHQPCRDGNTETHRAPDLVKWTRHMEAVKAQLLEQAQGQLRELLDRAMWEAIQSYPSQDKPPPLPPPDSLSRTQEPSLGKQKVFIIRKSLLDELMEVQHFRTIYHMFIAGLCVFIISTLAIDFIDEGRLLLEFDLLIFSFGQLPLALVTWVPMFLSTLLAPYQALRLWARPGARGTWTLGAGLGCALLAAHALVLCALPVHVAVEHQLPPASRCVLVFEQVRFLMKSYSFLREAVPGTLRARRGEGIQAPSFSSYLYFLFCPTLIYRETYPRTPYIRWNYVAKNFAQALGCVLYACFILGRLCVPVFANMSREPFSTRALVLSILHATLPGIFMLLLIFFAFLHCWLNAFAEMLRFGDRMFYRDWWNSTSFSNYYRTWNVVVHDWLYSYVYQDGLWLLGAQARGVAMLGVFLVSAVAHEYIFCFVLGFFYPVMLILFLVIGGMLNFMMHDQHTGPAWNVLMWTMLFLGQGIQVSLYCQEWYARRHCPLPQTTFWGLVTPRSWSCHT

> <PDB ID(s) of Target Chain>


> <UniProt (SwissProt) Recommended Name of Target Chain>
Sterol O-acyltransferase 2

> <UniProt (SwissProt) Entry Name of Target Chain>
ACAT-2

> <UniProt (SwissProt) Primary ID of Target Chain>
O77759

> <UniProt (SwissProt) Secondary ID(s) of Target Chain>


> <UniProt (SwissProt) Alternative ID(s) of Target Chain>


> <UniProt (TrEMBL) Submitted Name of Target Chain>


> <UniProt (TrEMBL) Entry Name of Target Chain>


> <UniProt (TrEMBL) Primary ID of Target Chain>


> <UniProt (TrEMBL) Secondary ID(s) of Target Chain>


> <UniProt (TrEMBL) Alternative ID(s) of Target Chain>


$$$$

  Mrv0541 11221420062D          

 30 32  0  0  1  0            999 V2000
    2.3757   -2.8708    0.0000 C   0  0  0  0  0  0  0  0  0  0  0  0
    1.5644   -2.7834    0.0000 C   0  0  0  0  0  0  0  0  0  0  0  0
    3.4866   -3.9234    0.0000 O   0  0  0  0  0  0  0  0  0  0  0  0
    2.7210   -3.6239    0.0000 C   0  0  0  0  0  0  0  0  0  0  0  0
    1.0776   -3.4491    0.0000 C   0  0  0  0  0  0  0  0  0  0  0  0
    4.2355   -3.5947    0.0000 C   0  0  0  0  0  0  0  0  0  0  0  0
    2.6836   -2.1011    0.0000 C   0  0  0  0  0  0  0  0  0  0  0  0
    4.5350   -2.8251    0.0000 C   0  0  0  0  0  0  0  0  0  0  0  0
    0.2621   -3.3618    0.0000 C   0  0  1  0  0  0  0  0  0  0  0  0
    3.4367   -1.7724    0.0000 O   0  0  0  0  0  0  0  0  0  0  0  0
    4.7555   -4.2355    0.0000 C   0  0  0  0  0  0  0  0  0  0  0  0
    1.4146   -4.1980    0.0000 C   0  0  0  0  0  0  0  0  0  0  0  0
    0.4743   -4.1564    0.0000 O   0  0  0  0  0  0  0  0  0  0  0  0
    4.2063   -2.0720    0.0000 C   0  0  0  0  0  0  0  0  0  0  0  0
   -0.1123   -4.7348    0.0000 C   0  0  0  0  0  0  0  0  0  0  0  0
    2.2384   -4.2937    0.0000 C   0  0  0  0  0  0  0  0  0  0  0  0
    5.3464   -2.6960    0.0000 C   0  0  0  0  0  0  0  0  0  0  0  0
    5.5710   -4.1107    0.0000 C   0  0  0  0  0  0  0  0  0  0  0  0
   -0.0707   -2.6004    0.0000 C   0  0  0  0  0  0  0  0  0  0  0  0
    2.0886   -1.5352    0.0000 O   0  0  0  0  0  0  0  0  0  0  0  0
    5.8664   -3.3368    0.0000 C   0  0  0  0  0  0  0  0  0  0  0  0
   -0.9112   -4.5184    0.0000 O   0  0  0  0  0  0  0  0  0  0  0  0
    1.2399   -2.0345    0.0000 O   0  0  0  0  0  0  0  0  0  0  0  0
    4.4560   -4.9969    0.0000 O   0  0  0  0  0  0  0  0  0  0  0  0
   -0.8945   -2.6004    0.0000 C   0  0  0  0  0  0  0  0  0  0  0  0
    0.0916   -5.5336    0.0000 C   0  0  0  0  0  0  0  0  0  0  0  0
    6.6819   -3.2120    0.0000 C   0  0  0  0  0  0  0  0  0  0  0  0
    0.4161   -1.9389    0.0000 C   0  0  0  0  0  0  0  0  0  0  0  0
   -1.3064   -1.8764    0.0000 C   0  0  0  0  0  0  0  0  0  0  0  0
   -1.3189   -3.3076    0.0000 C   0  0  0  0  0  0  0  0  0  0  0  0
  2  1  2  0  0  0  0
  3  4  1  0  0  0  0
  4  1  1  0  0  0  0
  5  2  1  0  0  0  0
  6  3  1  0  0  0  0
  7  1  1  0  0  0  0
  8 14  1  0  0  0  0
  9  5  1  0  0  0  0
 10  7  1  0  0  0  0
 11  6  2  0  0  0  0
 12 16  1  0  0  0  0
  9 13  1  1  0  0  0
 14 10  1  0  0  0  0
 15 13  1  0  0  0  0
 16  4  2  0  0  0  0
 17  8  2  0  0  0  0
 18 11  1  0  0  0  0
  9 19  1  0  0  0  0
 20  7  2  0  0  0  0
 21 17  1  0  0  0  0
 22 15  2  0  0  0  0
 23  2  1  0  0  0  0
 24 11  1  0  0  0  0
 25 19  1  0  0  0  0
 26 15  1  0  0  0  0
 27 21  1  0  0  0  0
 28 23  1  0  0  0  0
 29 25  1  0  0  0  0
 30 25  1  0  0  0  0
  5 12  2  0  0  0  0
  6  8  1  0  0  0  0
 18 21  2  0  0  0  0
M  END
> <From>
www.bindingDB.org

> <BindingDB Reactant_set_id>
51105756

> <Ligand InChI>
InChI=1S/C23H26O7/c1-12(2)8-19(29-14(4)24)16-6-7-18-20(22(16)27-5)23(26)28-11-15-9-13(3)10-17(25)21(15)30-18/h6-7,9-10,12,19,25H,8,11H2,1-5H3/t19-/m0/s1

> <Ligand InChI Key>
NUYFKDBCHFKOBT-IBGZPJMESA-N

> <BindingDB MonomerID>
50281511

> <BindingDB Ligand Name>
Acetic acid (S)-1-(11-hydroxy-4-methoxy-9-methyl-5-oxo-5H,7H-6,12-dioxa-dibenzo[a,d]cycloocten-3-yl)-3-methyl-butyl ester::CHEMBL116226

> <Target Name>
Sterol O-acyltransferase 2

> <Target Source Organism According to Curator or DataSource>


> <Ki (nM)>


> <IC50 (nM)>
 1500

> <Kd (nM)>


> <EC50 (nM)>


> <kon (M-1-s-1)>


> <koff (s-1)>


> <pH>


> <Temp (C)>


> <Curation/DataSource>
ChEMBL

> <Article DOI>
10.1021/acs.jnatprod.7b00137

> <BindingDB Entry DOI>
10.7270/Q2251MS3

> <PMID>
28294609

> <PubChem AID>


> <Patent Number>


> <Authors>
Iwasaki, A; Tadenuma, T; Sumimoto, S; Ohshiro, T; Ozaki, K; Kobayashi, K; Teruya, T; Tomoda, H; Suenaga, K

> <Institution>
Keio University

> <Link to Ligand in BindingDB>
http://www.bindingdb.org/bind/chemsearch/marvin/MolStructure.jsp?monomerid=50281511

> <Link to Target in BindingDB>
http://www.bindingdb.org/jsp/dbsearch/PrimarySearch_ki.jsp?energyterm=kJ/mole&tag=pol&polymerid=50007205&target=Sterol+O-acyltransferase+2&column=ki&startPg=0&Increment=50&submit=Search

> <Link to Ligand-Target Pair in BindingDB>
http://www.bindingdb.org/jsp/dbsearch/PrimarySearch_ki.jsp?energyterm=kJ/mole&tag=r21&monomerid=50281511&enzyme=Sterol+O-acyltransferase+2&column=ki&startPg=0&Increment=50&submit=Search

> <Ligand HET ID in PDB>


> <PDB ID(s) for Ligand-Target Complex>


> <PubChem CID>
10341722

> <PubChem SID>
104123185

> <ChEBI ID of Ligand>
65444

> <ChEMBL ID of Ligand>
CHEMBL116226

> <DrugBank ID of Ligand>


> <IUPHAR_GRAC ID of Ligand>


> <KEGG ID of Ligand>


> <ZINC ID of Ligand>
ZINC06070257

> <Number of Protein Chains in Target (>1 implies a multichain complex)>
1

> <BindingDB Target Chain Sequence>
MEPGGARLRLQRTEGPGGEREHQPCRDGNTETHRAPDLVKWTRHMEAVKAQLLEQAQGQLRELLDRAMWEAIQSYPSQDKPPPLPPPDSLSRTQEPSLGKQKVFIIRKSLLDELMEVQHFRTIYHMFIAGLCVFIISTLAIDFIDEGRLLLEFDLLIFSFGQLPLALVTWVPMFLSTLLAPYQALRLWARPGARGTWTLGAGLGCALLAAHALVLCALPVHVAVEHQLPPASRCVLVFEQVRFLMKSYSFLREAVPGTLRARRGEGIQAPSFSSYLYFLFCPTLIYRETYPRTPYIRWNYVAKNFAQALGCVLYACFILGRLCVPVFANMSREPFSTRALVLSILHATLPGIFMLLLIFFAFLHCWLNAFAEMLRFGDRMFYRDWWNSTSFSNYYRTWNVVVHDWLYSYVYQDGLWLLGAQARGVAMLGVFLVSAVAHEYIFCFVLGFFYPVMLILFLVIGGMLNFMMHDQHTGPAWNVLMWTMLFLGQGIQVSLYCQEWYARRHCPLPQTTFWGLVTPRSWSCHT

> <PDB ID(s) of Target Chain>


> <UniProt (SwissProt) Recommended Name of Target Chain>
Sterol O-acyltransferase 2

> <UniProt (SwissProt) Entry Name of Target Chain>
ACAT-2

> <UniProt (SwissProt) Primary ID of Target Chain>
O77759

> <UniProt (SwissProt) Secondary ID(s) of Target Chain>


> <UniProt (SwissProt) Alternative ID(s) of Target Chain>


> <UniProt (TrEMBL) Submitted Name of Target Chain>


> <UniProt (TrEMBL) Entry Name of Target Chain>


> <UniProt (TrEMBL) Primary ID of Target Chain>


> <UniProt (TrEMBL) Secondary ID(s) of Target Chain>


> <UniProt (TrEMBL) Alternative ID(s) of Target Chain>


$$$$
00187001.cdx
  Mrv0541 03241516502D          

 34 37  0  0  0  0            999 V2000
   -4.6441   -0.7697    0.0000 C   0  0  0  0  0  0  0  0  0  0  0  0
   -5.3585   -1.1822    0.0000 C   0  0  0  0  0  0  0  0  0  0  0  0
   -5.3585   -2.0072    0.0000 C   0  0  0  0  0  0  0  0  0  0  0  0
   -4.6441   -2.4197    0.0000 C   0  0  0  0  0  0  0  0  0  0  0  0
   -3.9296   -2.0072    0.0000 C   0  0  0  0  0  0  0  0  0  0  0  0
   -3.9296   -1.1822    0.0000 C   0  0  0  0  0  0  0  0  0  0  0  0
   -3.2151   -2.4197    0.0000 N   0  0  0  0  0  0  0  0  0  0  0  0
   -2.5006   -2.0072    0.0000 C   0  0  0  0  0  0  0  0  0  0  0  0
   -1.7862   -2.4197    0.0000 O   0  0  0  0  0  0  0  0  0  0  0  0
   -2.5006   -1.1822    0.0000 C   0  0  0  0  0  0  0  0  0  0  0  0
   -3.2151   -0.7697    0.0000 C   0  0  0  0  0  0  0  0  0  0  0  0
   -1.7862   -0.7697    0.0000 C   0  0  0  0  0  0  0  0  0  0  0  0
   -1.7862    0.0553    0.0000 C   0  0  0  0  0  0  0  0  0  0  0  0
   -2.5006    0.4678    0.0000 N   0  0  0  0  0  0  0  0  0  0  0  0
   -3.2151    0.0553    0.0000 C   0  0  0  0  0  0  0  0  0  0  0  0
   -1.0717   -1.1822    0.0000 C   0  0  0  0  0  0  0  0  0  0  0  0
   -0.3572   -0.7697    0.0000 C   0  0  0  0  0  0  0  0  0  0  0  0
   -0.3572    0.0553    0.0000 C   0  0  0  0  0  0  0  0  0  0  0  0
   -1.0717    0.4678    0.0000 C   0  0  0  0  0  0  0  0  0  0  0  0
    0.3572    0.4678    0.0000 C   0  0  0  0  0  0  0  0  0  0  0  0
    1.0717    0.0553    0.0000 C   0  0  0  0  0  0  0  0  0  0  0  0
    1.7862    0.4678    0.0000 C   0  0  0  0  0  0  0  0  0  0  0  0
    1.7862    1.2928    0.0000 C   0  0  0  0  0  0  0  0  0  0  0  0
    1.0717    1.7053    0.0000 N   0  0  0  0  0  0  0  0  0  0  0  0
    0.3572    1.2928    0.0000 C   0  0  0  0  0  0  0  0  0  0  0  0
    2.5006    1.7053    0.0000 O   0  0  0  0  0  0  0  0  0  0  0  0
    3.2151    1.2928    0.0000 C   0  0  0  0  0  0  0  0  0  0  0  0
    4.6441    1.2928    0.0000 C   0  0  0  0  0  0  0  0  0  0  0  0
    3.9296    1.7053    0.0000 C   0  0  0  0  0  0  0  0  0  0  0  0
   -3.9296    0.4678    0.0000 C   0  0  0  0  0  0  0  0  0  0  0  0
    3.5171    2.4197    0.0000 C   0  0  0  0  0  0  0  0  0  0  0  0
    4.3421    2.4197    0.0000 C   0  0  0  0  0  0  0  0  0  0  0  0
    5.3585    1.7053    0.0000 O   0  0  0  0  0  0  0  0  0  0  0  0
    4.6441    0.4678    0.0000 O   0  0  0  0  0  0  0  0  0  0  0  0
  1  2  4  0  0  0  0
  2  3  4  0  0  0  0
  3  4  4  0  0  0  0
  4  5  4  0  0  0  0
  5  6  4  0  0  0  0
  6  1  4  0  0  0  0
  5  7  1  0  0  0  0
  7  8  1  0  0  0  0
  8  9  2  0  0  0  0
  8 10  1  0  0  0  0
 10 11  4  0  0  0  0
 10 12  4  0  0  0  0
 12 13  4  0  0  0  0
 13 14  4  0  0  0  0
 14 15  4  0  0  0  0
 15 11  4  0  0  0  0
 12 16  4  0  0  0  0
 16 17  4  0  0  0  0
 17 18  4  0  0  0  0
 18 19  4  0  0  0  0
 19 13  4  0  0  0  0
 18 20  1  0  0  0  0
 20 21  4  0  0  0  0
 21 22  4  0  0  0  0
 22 23  4  0  0  0  0
 23 24  4  0  0  0  0
 24 25  4  0  0  0  0
 25 20  4  0  0  0  0
 23 26  1  0  0  0  0
 26 27  1  0  0  0  0
 28 29  1  0  0  0  0
 29 27  1  0  0  0  0
 15 30  1  0  0  0  0
 29 31  1  0  0  0  0
 29 32  1  0  0  0  0
 28 33  1  0  0  0  0
 28 34  2  0  0  0  0
M  END
> <From>
www.bindingDB.org

> <BindingDB Reactant_set_id>
50088731

> <Ligand InChI>
InChI=1S/C27H25N3O4/c1-17-13-22(25(31)30-20-7-5-4-6-8-20)21-11-9-18(14-23(21)29-17)19-10-12-24(28-15-19)34-16-27(2,3)26(32)33/h4-15H,16H2,1-3H3,(H,30,31)(H,32,33)

> <Ligand InChI Key>
GRMDIAZNKAUWLE-UHFFFAOYSA-N

> <BindingDB MonomerID>
113723

> <BindingDB Ligand Name>
US8637507, B-17

> <Target Name>
Sterol O-acyltransferase 2

> <Target Source Organism According to Curator or DataSource>


> <Ki (nM)>


> <IC50 (nM)>
 1555

> <Kd (nM)>


> <EC50 (nM)>


> <kon (M-1-s-1)>


> <koff (s-1)>


> <pH>


> <Temp (C)>


> <Curation/DataSource>
ChEMBL

> <Article DOI>
10.1016/j.bmcl.2014.02.028

> <BindingDB Entry DOI>
10.7270/Q2DR2X19

> <PMID>
24618302

> <PubChem AID>


> <Patent Number>


> <Authors>
Zhou, G; Ting, PC; Wishart, G; Zorn, N; Aslanian, RG; Lin, M; Smith, M; Walker, SS; Cook, J; Van Heek, M; Lachowicz, J

> <Institution>
Merck Research Laboratories

> <Link to Ligand in BindingDB>
http://www.bindingdb.org/bind/chemsearch/marvin/MolStructure.jsp?monomerid=113723

> <Link to Target in BindingDB>
http://www.bindingdb.org/jsp/dbsearch/PrimarySearch_ki.jsp?energyterm=kJ/mole&tag=pol&polymerid=7773&target=Sterol+O-acyltransferase+2&column=ki&startPg=0&Increment=50&submit=Search

> <Link to Ligand-Target Pair in BindingDB>
http://www.bindingdb.org/jsp/dbsearch/PrimarySearch_ki.jsp?energyterm=kJ/mole&tag=r21&monomerid=113723&enzyme=Sterol+O-acyltransferase+2&column=ki&startPg=0&Increment=50&submit=Search

> <Ligand HET ID in PDB>


> <PDB ID(s) for Ligand-Target Complex>


> <PubChem CID>
46926794

> <PubChem SID>
199995439

> <ChEBI ID of Ligand>


> <ChEMBL ID of Ligand>


> <DrugBank ID of Ligand>


> <IUPHAR_GRAC ID of Ligand>


> <KEGG ID of Ligand>


> <ZINC ID of Ligand>


> <Number of Protein Chains in Target (>1 implies a multichain complex)>
1

> <BindingDB Target Chain Sequence>
MEPGGARLRLQRTEGLGGERERQPCGDGNTETHRAPDLVQWTRHMEAVKAQLLEQAQGQLRELLDRAMREAIQSYPSQDKPLPPPPPGSLSRTQEPSLGKQKVFIIRKSLLDELMEVQHFRTIYHMFIAGLCVFIISTLAIDFIDEGRLLLEFDLLIFSFGQLPLALVTWVPMFLSTLLAPYQALRLWARGTWTQATGLGCALLAAHAVVLCALPVHVAVEHQLPPASRCVLVFEQVRFLMKSYSFLREAVPGTLRARRGEGIQAPSFSSYLYFLFCPTLIYRETYPRTPYVRWNYVAKNFAQALGCVLYACFILGRLCVPVFANMSREPFSTRALVLSILHATLPGIFMLLLIFFAFLHCWLNAFAEMLRFGDRMFYRDWWNSTSFSNYYRTWNVVVHDWLYSYVYQDGLRLLGARARGVAMLGVFLVSAVAHEYIFCFVLGFFYPVMLILFLVIGGMLNFMMHDQRTGPAWNVLMWTMLFLGQGIQVSLYCQEWYARRHCPLPQATFWGLVTPRSWSCHT

> <PDB ID(s) of Target Chain>


> <UniProt (SwissProt) Recommended Name of Target Chain>
Sterol O-acyltransferase 2

> <UniProt (SwissProt) Entry Name of Target Chain>
ACAT-2

> <UniProt (SwissProt) Primary ID of Target Chain>
O75908

> <UniProt (SwissProt) Secondary ID(s) of Target Chain>
F5H7W4 I6L9H9 Q4VB99 Q4VBA1 Q96TD4 Q9UNR2

> <UniProt (SwissProt) Alternative ID(s) of Target Chain>


> <UniProt (TrEMBL) Submitted Name of Target Chain>


> <UniProt (TrEMBL) Entry Name of Target Chain>


> <UniProt (TrEMBL) Primary ID of Target Chain>


> <UniProt (TrEMBL) Secondary ID(s) of Target Chain>


> <UniProt (TrEMBL) Alternative ID(s) of Target Chain>


$$$$

  Mrv0541 11221400362D          

 43 46  0  0  0  0            999 V2000
    8.7575  -13.6404    0.0000 C   0  0  0  0  0  0  0  0  0  0  0  0
    8.7561  -14.4679    0.0000 C   0  0  0  0  0  0  0  0  0  0  0  0
    9.4692  -14.8809    0.0000 C   0  0  0  0  0  0  0  0  0  0  0  0
   10.1885  -14.4675    0.0000 C   0  0  0  0  0  0  0  0  0  0  0  0
    9.4672  -13.2275    0.0000 C   0  0  0  0  0  0  0  0  0  0  0  0
    9.4632  -12.4025    0.0000 N   0  0  0  0  0  0  0  0  0  0  0  0
    8.0425  -13.2284    0.0000 F   0  0  0  0  0  0  0  0  0  0  0  0
    9.4677  -15.7059    0.0000 F   0  0  0  0  0  0  0  0  0  0  0  0
   10.1758  -11.9867    0.0000 C   0  0  0  0  0  0  0  0  0  0  0  0
   10.1720  -11.1617    0.0000 O   0  0  0  0  0  0  0  0  0  0  0  0
   10.8923  -12.3958    0.0000 N   0  0  0  0  0  0  0  0  0  0  0  0
   11.6048  -11.9800    0.0000 C   0  0  0  0  0  0  0  0  0  0  0  0
   10.8961  -13.2208    0.0000 C   0  0  0  0  0  0  0  0  0  0  0  0
   10.1835  -13.6367    0.0000 C   0  0  0  0  0  0  0  0  0  0  0  0
   11.6125  -13.6300    0.0000 C   0  0  0  0  0  0  0  0  0  0  0  0
   11.6163  -14.4551    0.0000 C   0  0  0  0  0  0  0  0  0  0  0  0
   12.3279  -14.8613    0.0000 C   0  0  0  0  0  0  0  0  0  0  0  0
   13.0484  -14.4595    0.0000 C   0  0  0  0  0  0  0  0  0  0  0  0
   13.0608  -13.6344    0.0000 C   0  0  0  0  0  0  0  0  0  0  0  0
   13.7813  -13.2326    0.0000 C   0  0  0  0  0  0  0  0  0  0  0  0
   11.6009  -11.1550    0.0000 C   0  0  0  0  0  0  0  0  0  0  0  0
   12.3135  -10.7392    0.0000 C   0  0  0  0  0  0  0  0  0  0  0  0
   13.0300  -11.1483    0.0000 C   0  0  0  0  0  0  0  0  0  0  0  0
   13.7425  -10.7324    0.0000 C   0  0  0  0  0  0  0  0  0  0  0  0
   14.4589  -11.1417    0.0000 N   0  0  0  0  0  0  0  0  0  0  0  0
   15.1714  -10.7257    0.0000 C   0  0  0  0  0  0  0  0  0  0  0  0
   15.8870  -11.1378    0.0000 N   0  0  0  0  0  0  0  0  0  0  0  0
   16.5990  -10.7227    0.0000 N   0  0  0  0  0  0  0  0  0  0  0  0
   16.5956   -9.8968    0.0000 C   0  0  0  0  0  0  0  0  0  0  0  0
   15.8742   -9.4878    0.0000 C   0  0  0  0  0  0  0  0  0  0  0  0
   15.1650   -9.9053    0.0000 C   0  0  0  0  0  0  0  0  0  0  0  0
   17.3056   -9.4809    0.0000 C   0  0  0  0  0  0  0  0  0  0  0  0
   18.0228   -9.8909    0.0000 C   0  0  0  0  0  0  0  0  0  0  0  0
   18.7343   -9.4748    0.0000 C   0  0  0  0  0  0  0  0  0  0  0  0
   18.7298   -8.6489    0.0000 C   0  0  0  0  0  0  0  0  0  0  0  0
   18.0078   -8.2409    0.0000 C   0  0  0  0  0  0  0  0  0  0  0  0
   17.2993   -8.6593    0.0000 C   0  0  0  0  0  0  0  0  0  0  0  0
   15.8678   -8.6636    0.0000 C   0  0  0  0  0  0  0  0  0  0  0  0
   16.5805   -8.2459    0.0000 C   0  0  0  0  0  0  0  0  0  0  0  0
   16.5742   -7.4217    0.0000 C   0  0  0  0  0  0  0  0  0  0  0  0
   15.8557   -7.0142    0.0000 C   0  0  0  0  0  0  0  0  0  0  0  0
   15.1422   -7.4370    0.0000 C   0  0  0  0  0  0  0  0  0  0  0  0
   15.1523   -8.2599    0.0000 C   0  0  0  0  0  0  0  0  0  0  0  0
  9 10  2  0  0  0  0
 21 22  1  0  0  0  0
 14  5  1  0  0  0  0
 22 23  1  0  0  0  0
  9 11  1  0  0  0  0
 23 24  1  0  0  0  0
  5  1  2  0  0  0  0
 24 25  1  0  0  0  0
 11 12  1  0  0  0  0
 25 26  1  0  0  0  0
  2  3  2  0  0  0  0
 26 27  2  0  0  0  0
 11 13  1  0  0  0  0
 27 28  1  0  0  0  0
  5  6  1  0  0  0  0
 28 29  2  0  0  0  0
  1  2  1  0  0  0  0
 29 30  1  0  0  0  0
 13 15  1  0  0  0  0
 30 31  2  0  0  0  0
 31 26  1  0  0  0  0
  1  7  1  0  0  0  0
 15 16  1  0  0  0  0
 32 33  2  0  0  0  0
  3  4  1  0  0  0  0
 33 34  1  0  0  0  0
 16 17  1  0  0  0  0
 34 35  2  0  0  0  0
  3  8  1  0  0  0  0
 35 36  1  0  0  0  0
 17 18  1  0  0  0  0
 36 37  2  0  0  0  0
 37 32  1  0  0  0  0
 29 32  1  0  0  0  0
  4 14  2  0  0  0  0
 18 19  1  0  0  0  0
 38 39  2  0  0  0  0
  6  9  1  0  0  0  0
 39 40  1  0  0  0  0
 19 20  1  0  0  0  0
 40 41  2  0  0  0  0
 41 42  1  0  0  0  0
 12 21  1  0  0  0  0
 42 43  2  0  0  0  0
 43 38  1  0  0  0  0
 30 38  1  0  0  0  0
M  END
> <From>
www.bindingDB.org

> <BindingDB Reactant_set_id>
50329415

> <Ligand InChI>
InChI=1S/C35H41F2N5O/c1-2-3-4-5-14-23-42(35(43)39-32-21-20-29(36)25-31(32)37)24-15-8-13-22-38-33-26-30(27-16-9-6-10-17-27)34(41-40-33)28-18-11-7-12-19-28/h6-7,9-12,16-21,25-26H,2-5,8,13-15,22-24H2,1H3,(H,38,40)(H,39,43)

> <Ligand InChI Key>
NBZTUILXYUZCLY-UHFFFAOYSA-N

> <BindingDB MonomerID>
50177892

> <BindingDB Ligand Name>
CHEMBL371677::N-(2,4-difluorophenyl)-N'-heptyl-N'-{5-[(5,6-diphenyl-pyridazin-3-yl)amino]pentyl}urea

> <Target Name>
Sterol O-acyltransferase 2

> <Target Source Organism According to Curator or DataSource>


> <Ki (nM)>


> <IC50 (nM)>
 1740

> <Kd (nM)>


> <EC50 (nM)>


> <kon (M-1-s-1)>


> <koff (s-1)>


> <pH>


> <Temp (C)>


> <Curation/DataSource>
ChEMBL

> <Article DOI>
10.1021/jm050703x

> <BindingDB Entry DOI>
10.7270/Q2KS6R40

> <PMID>
16302810

> <PubChem AID>


> <Patent Number>


> <Authors>
Gelain, A; Bettinelli, I; Barlocco, D; Kwon, BM; Jeong, TS; Cho, KH; Toma, L

> <Institution>
Universit&#224; di Milano

> <Link to Ligand in BindingDB>
http://www.bindingdb.org/bind/chemsearch/marvin/MolStructure.jsp?monomerid=50177892

> <Link to Target in BindingDB>
http://www.bindingdb.org/jsp/dbsearch/PrimarySearch_ki.jsp?energyterm=kJ/mole&tag=pol&polymerid=7773&target=Sterol+O-acyltransferase+2&column=ki&startPg=0&Increment=50&submit=Search

> <Link to Ligand-Target Pair in BindingDB>
http://www.bindingdb.org/jsp/dbsearch/PrimarySearch_ki.jsp?energyterm=kJ/mole&tag=r21&monomerid=50177892&enzyme=Sterol+O-acyltransferase+2&column=ki&startPg=0&Increment=50&submit=Search

> <Ligand HET ID in PDB>


> <PDB ID(s) for Ligand-Target Complex>


> <PubChem CID>
11685698

> <PubChem SID>
104063289

> <ChEBI ID of Ligand>


> <ChEMBL ID of Ligand>
CHEMBL371677

> <DrugBank ID of Ligand>


> <IUPHAR_GRAC ID of Ligand>


> <KEGG ID of Ligand>


> <ZINC ID of Ligand>
ZINC36331580

> <Number of Protein Chains in Target (>1 implies a multichain complex)>
1

> <BindingDB Target Chain Sequence>
MEPGGARLRLQRTEGLGGERERQPCGDGNTETHRAPDLVQWTRHMEAVKAQLLEQAQGQLRELLDRAMREAIQSYPSQDKPLPPPPPGSLSRTQEPSLGKQKVFIIRKSLLDELMEVQHFRTIYHMFIAGLCVFIISTLAIDFIDEGRLLLEFDLLIFSFGQLPLALVTWVPMFLSTLLAPYQALRLWARGTWTQATGLGCALLAAHAVVLCALPVHVAVEHQLPPASRCVLVFEQVRFLMKSYSFLREAVPGTLRARRGEGIQAPSFSSYLYFLFCPTLIYRETYPRTPYVRWNYVAKNFAQALGCVLYACFILGRLCVPVFANMSREPFSTRALVLSILHATLPGIFMLLLIFFAFLHCWLNAFAEMLRFGDRMFYRDWWNSTSFSNYYRTWNVVVHDWLYSYVYQDGLRLLGARARGVAMLGVFLVSAVAHEYIFCFVLGFFYPVMLILFLVIGGMLNFMMHDQRTGPAWNVLMWTMLFLGQGIQVSLYCQEWYARRHCPLPQATFWGLVTPRSWSCHT

> <PDB ID(s) of Target Chain>


> <UniProt (SwissProt) Recommended Name of Target Chain>
Sterol O-acyltransferase 2

> <UniProt (SwissProt) Entry Name of Target Chain>
ACAT-2

> <UniProt (SwissProt) Primary ID of Target Chain>
O75908

> <UniProt (SwissProt) Secondary ID(s) of Target Chain>
F5H7W4 I6L9H9 Q4VB99 Q4VBA1 Q96TD4 Q9UNR2

> <UniProt (SwissProt) Alternative ID(s) of Target Chain>


> <UniProt (TrEMBL) Submitted Name of Target Chain>


> <UniProt (TrEMBL) Entry Name of Target Chain>


> <UniProt (TrEMBL) Primary ID of Target Chain>


> <UniProt (TrEMBL) Secondary ID(s) of Target Chain>


> <UniProt (TrEMBL) Alternative ID(s) of Target Chain>


$$$$

  Mrv0541 12012115422D          

 36 39  0  0  0  0            999 V2000
    7.1413   -7.5917    0.0000 C   0  0  0  0  0  0  0  0  0  0  0  0
    7.8035   -8.0838    0.0000 N   0  0  0  0  0  0  0  0  0  0  0  0
    8.4774   -7.6076    0.0000 C   0  0  0  0  0  0  0  0  0  0  0  0
    8.2305   -6.8176    0.0000 N   0  0  0  0  0  0  0  0  0  0  0  0
    7.4063   -6.8117    0.0000 C   0  0  0  0  0  0  0  0  0  0  0  0
    9.2588   -7.8721    0.0000 S   0  0  0  0  0  0  0  0  0  0  0  0
    9.8786   -7.3275    0.0000 C   0  0  0  0  0  0  0  0  0  0  0  0
   10.6601   -7.5919    0.0000 C   0  0  0  0  0  0  0  0  0  0  0  0
   11.2799   -7.0473    0.0000 C   0  0  0  0  0  0  0  0  0  0  0  0
   12.0615   -7.3118    0.0000 C   0  0  0  0  0  0  0  0  0  0  0  0
   12.6811   -6.7673    0.0000 C   0  0  0  0  0  0  0  0  0  0  0  0
   13.4627   -7.0317    0.0000 C   0  0  0  0  0  0  0  0  0  0  0  0
   14.0824   -6.4872    0.0000 N   0  0  0  0  0  0  0  0  0  0  0  0
   14.8640   -6.7516    0.0000 C   0  0  0  0  0  0  0  0  0  0  0  0
   15.4838   -6.2070    0.0000 N   0  0  0  0  0  0  0  0  0  0  0  0
   15.0257   -7.5606    0.0000 O   0  0  0  0  0  0  0  0  0  0  0  0
   16.2652   -6.4716    0.0000 C   0  0  0  0  0  0  0  0  0  0  0  0
   16.4222   -7.2821    0.0000 C   0  0  0  0  0  0  0  0  0  0  0  0
   17.2029   -7.5467    0.0000 C   0  0  0  0  0  0  0  0  0  0  0  0
   17.8236   -7.0018    0.0000 C   0  0  0  0  0  0  0  0  0  0  0  0
   17.6584   -6.1892    0.0000 C   0  0  0  0  0  0  0  0  0  0  0  0
   16.8779   -5.9284    0.0000 C   0  0  0  0  0  0  0  0  0  0  0  0
   16.7128   -5.1200    0.0000 F   0  0  0  0  0  0  0  0  0  0  0  0
   18.6054   -7.2653    0.0000 F   0  0  0  0  0  0  0  0  0  0  0  0
    6.9283   -6.1393    0.0000 C   0  0  0  0  0  0  0  0  0  0  0  0
    6.3536   -7.8372    0.0000 C   0  0  0  0  0  0  0  0  0  0  0  0
    7.2730   -5.3902    0.0000 C   0  0  0  0  0  0  0  0  0  0  0  0
    6.7956   -4.7182    0.0000 C   0  0  0  0  0  0  0  0  0  0  0  0
    5.9734   -4.7956    0.0000 C   0  0  0  0  0  0  0  0  0  0  0  0
    5.6308   -5.5508    0.0000 C   0  0  0  0  0  0  0  0  0  0  0  0
    6.1101   -6.2197    0.0000 C   0  0  0  0  0  0  0  0  0  0  0  0
    5.7505   -7.2780    0.0000 C   0  0  0  0  0  0  0  0  0  0  0  0
    4.9635   -7.5228    0.0000 C   0  0  0  0  0  0  0  0  0  0  0  0
    4.7816   -8.3285    0.0000 C   0  0  0  0  0  0  0  0  0  0  0  0
    5.3929   -8.8888    0.0000 C   0  0  0  0  0  0  0  0  0  0  0  0
    6.1777   -8.6410    0.0000 C   0  0  0  0  0  0  0  0  0  0  0  0
  1  2  4  0  0  0  0
  2  3  4  0  0  0  0
  3  4  4  0  0  0  0
  4  5  4  0  0  0  0
  5  1  4  0  0  0  0
  3  6  1  0  0  0  0
  6  7  1  0  0  0  0
  7  8  1  0  0  0  0
  8  9  1  0  0  0  0
  9 10  1  0  0  0  0
 10 11  1  0  0  0  0
 11 12  1  0  0  0  0
 12 13  1  0  0  0  0
 13 14  1  0  0  0  0
 14 15  1  0  0  0  0
 14 16  2  0  0  0  0
 15 17  1  0  0  0  0
 17 18  4  0  0  0  0
 18 19  4  0  0  0  0
 19 20  4  0  0  0  0
 20 21  4  0  0  0  0
 21 22  4  0  0  0  0
 22 17  4  0  0  0  0
 22 23  1  0  0  0  0
 20 24  1  0  0  0  0
  5 25  1  0  0  0  0
  1 26  1  0  0  0  0
 25 27  4  0  0  0  0
 27 28  4  0  0  0  0
 28 29  4  0  0  0  0
 29 30  4  0  0  0  0
 30 31  4  0  0  0  0
 31 25  4  0  0  0  0
 26 32  4  0  0  0  0
 32 33  4  0  0  0  0
 33 34  4  0  0  0  0
 34 35  4  0  0  0  0
 35 36  4  0  0  0  0
 36 26  4  0  0  0  0
M  STY  1   1 DAT
M  SAL   1  1   2
M  SDT   1 MRV_IMPLICIT_H                                        
M  SDD   1     0.0000    0.0000    DR    ALL  0       0  
M  SED   1 IMPL_H1
M  END
> <From>
www.bindingDB.org

> <BindingDB Reactant_set_id>
50880965

> <Ligand InChI>
InChI=1S/C28H28F2N4OS/c29-22-15-16-24(23(30)19-22)32-27(35)31-17-9-1-2-10-18-36-28-33-25(20-11-5-3-6-12-20)26(34-28)21-13-7-4-8-14-21/h3-8,11-16,19H,1-2,9-10,17-18H2,(H,33,34)(H2,31,32,35)

> <Ligand InChI Key>
NKLDKBKHZAQSHK-UHFFFAOYSA-N

> <BindingDB MonomerID>
50264575

> <BindingDB Ligand Name>
CHEMBL4076731

> <Target Name>
Sterol O-acyltransferase 2

> <Target Source Organism According to Curator or DataSource>


> <Ki (nM)>


> <IC50 (nM)>
 1740

> <Kd (nM)>


> <EC50 (nM)>


> <kon (M-1-s-1)>


> <koff (s-1)>


> <pH>


> <Temp (C)>


> <Curation/DataSource>
ChEMBL

> <Article DOI>
10.1016/j.ejmech.2017.02.038

> <BindingDB Entry DOI>
10.7270/Q2SX6GQJ

> <PMID>
28242547

> <PubChem AID>


> <Patent Number>


> <Authors>
Pal, P; Gandhi, HP; Kanhed, AM; Patel, NR; Mankadia, NN; Baldha, SN; Barmade, MA; Murumkar, PR; Yadav, MR

> <Institution>
The Maharaja Sayajirao University of Baroda

> <Link to Ligand in BindingDB>
http://www.bindingdb.org/bind/chemsearch/marvin/MolStructure.jsp?monomerid=50264575

> <Link to Target in BindingDB>
http://www.bindingdb.org/jsp/dbsearch/PrimarySearch_ki.jsp?energyterm=kJ/mole&tag=pol&polymerid=7773&target=Sterol+O-acyltransferase+2&column=ki&startPg=0&Increment=50&submit=Search

> <Link to Ligand-Target Pair in BindingDB>
http://www.bindingdb.org/jsp/dbsearch/PrimarySearch_ki.jsp?energyterm=kJ/mole&tag=r21&monomerid=50264575&enzyme=Sterol+O-acyltransferase+2&column=ki&startPg=0&Increment=50&submit=Search

> <Ligand HET ID in PDB>


> <PDB ID(s) for Ligand-Target Complex>


> <PubChem CID>
137650227

> <PubChem SID>
404341872

> <ChEBI ID of Ligand>


> <ChEMBL ID of Ligand>


> <DrugBank ID of Ligand>


> <IUPHAR_GRAC ID of Ligand>


> <KEGG ID of Ligand>


> <ZINC ID of Ligand>


> <Number of Protein Chains in Target (>1 implies a multichain complex)>
1

> <BindingDB Target Chain Sequence>
MEPGGARLRLQRTEGLGGERERQPCGDGNTETHRAPDLVQWTRHMEAVKAQLLEQAQGQLRELLDRAMREAIQSYPSQDKPLPPPPPGSLSRTQEPSLGKQKVFIIRKSLLDELMEVQHFRTIYHMFIAGLCVFIISTLAIDFIDEGRLLLEFDLLIFSFGQLPLALVTWVPMFLSTLLAPYQALRLWARGTWTQATGLGCALLAAHAVVLCALPVHVAVEHQLPPASRCVLVFEQVRFLMKSYSFLREAVPGTLRARRGEGIQAPSFSSYLYFLFCPTLIYRETYPRTPYVRWNYVAKNFAQALGCVLYACFILGRLCVPVFANMSREPFSTRALVLSILHATLPGIFMLLLIFFAFLHCWLNAFAEMLRFGDRMFYRDWWNSTSFSNYYRTWNVVVHDWLYSYVYQDGLRLLGARARGVAMLGVFLVSAVAHEYIFCFVLGFFYPVMLILFLVIGGMLNFMMHDQRTGPAWNVLMWTMLFLGQGIQVSLYCQEWYARRHCPLPQATFWGLVTPRSWSCHT

> <PDB ID(s) of Target Chain>


> <UniProt (SwissProt) Recommended Name of Target Chain>
Sterol O-acyltransferase 2

> <UniProt (SwissProt) Entry Name of Target Chain>
ACAT-2

> <UniProt (SwissProt) Primary ID of Target Chain>
O75908

> <UniProt (SwissProt) Secondary ID(s) of Target Chain>
F5H7W4 I6L9H9 Q4VB99 Q4VBA1 Q96TD4 Q9UNR2

> <UniProt (SwissProt) Alternative ID(s) of Target Chain>


> <UniProt (TrEMBL) Submitted Name of Target Chain>


> <UniProt (TrEMBL) Entry Name of Target Chain>


> <UniProt (TrEMBL) Primary ID of Target Chain>


> <UniProt (TrEMBL) Secondary ID(s) of Target Chain>


> <UniProt (TrEMBL) Alternative ID(s) of Target Chain>


$$$$

  Mrv0541 11221420062D          

 30 32  0  0  1  0            999 V2000
    2.3757   -2.8708    0.0000 C   0  0  0  0  0  0  0  0  0  0  0  0
    1.5644   -2.7834    0.0000 C   0  0  0  0  0  0  0  0  0  0  0  0
    3.4866   -3.9234    0.0000 O   0  0  0  0  0  0  0  0  0  0  0  0
    2.7210   -3.6239    0.0000 C   0  0  0  0  0  0  0  0  0  0  0  0
    1.0776   -3.4491    0.0000 C   0  0  0  0  0  0  0  0  0  0  0  0
    4.2355   -3.5947    0.0000 C   0  0  0  0  0  0  0  0  0  0  0  0
    2.6836   -2.1011    0.0000 C   0  0  0  0  0  0  0  0  0  0  0  0
    4.5350   -2.8251    0.0000 C   0  0  0  0  0  0  0  0  0  0  0  0
    0.2621   -3.3618    0.0000 C   0  0  1  0  0  0  0  0  0  0  0  0
    3.4367   -1.7724    0.0000 O   0  0  0  0  0  0  0  0  0  0  0  0
    4.7555   -4.2355    0.0000 C   0  0  0  0  0  0  0  0  0  0  0  0
    1.4146   -4.1980    0.0000 C   0  0  0  0  0  0  0  0  0  0  0  0
    0.4743   -4.1564    0.0000 O   0  0  0  0  0  0  0  0  0  0  0  0
    4.2063   -2.0720    0.0000 C   0  0  0  0  0  0  0  0  0  0  0  0
   -0.1123   -4.7348    0.0000 C   0  0  0  0  0  0  0  0  0  0  0  0
    2.2384   -4.2937    0.0000 C   0  0  0  0  0  0  0  0  0  0  0  0
    5.3464   -2.6960    0.0000 C   0  0  0  0  0  0  0  0  0  0  0  0
    5.5710   -4.1107    0.0000 C   0  0  0  0  0  0  0  0  0  0  0  0
   -0.0707   -2.6004    0.0000 C   0  0  0  0  0  0  0  0  0  0  0  0
    2.0886   -1.5352    0.0000 O   0  0  0  0  0  0  0  0  0  0  0  0
    5.8664   -3.3368    0.0000 C   0  0  0  0  0  0  0  0  0  0  0  0
   -0.9112   -4.5184    0.0000 O   0  0  0  0  0  0  0  0  0  0  0  0
    1.2399   -2.0345    0.0000 O   0  0  0  0  0  0  0  0  0  0  0  0
    4.4560   -4.9969    0.0000 O   0  0  0  0  0  0  0  0  0  0  0  0
   -0.8945   -2.6004    0.0000 C   0  0  0  0  0  0  0  0  0  0  0  0
    0.0916   -5.5336    0.0000 C   0  0  0  0  0  0  0  0  0  0  0  0
    6.6819   -3.2120    0.0000 C   0  0  0  0  0  0  0  0  0  0  0  0
    0.4161   -1.9389    0.0000 C   0  0  0  0  0  0  0  0  0  0  0  0
   -1.3064   -1.8764    0.0000 C   0  0  0  0  0  0  0  0  0  0  0  0
   -1.3189   -3.3076    0.0000 C   0  0  0  0  0  0  0  0  0  0  0  0
  2  1  2  0  0  0  0
  3  4  1  0  0  0  0
  4  1  1  0  0  0  0
  5  2  1  0  0  0  0
  6  3  1  0  0  0  0
  7  1  1  0  0  0  0
  8 14  1  0  0  0  0
  9  5  1  0  0  0  0
 10  7  1  0  0  0  0
 11  6  2  0  0  0  0
 12 16  1  0  0  0  0
  9 13  1  1  0  0  0
 14 10  1  0  0  0  0
 15 13  1  0  0  0  0
 16  4  2  0  0  0  0
 17  8  2  0  0  0  0
 18 11  1  0  0  0  0
  9 19  1  0  0  0  0
 20  7  2  0  0  0  0
 21 17  1  0  0  0  0
 22 15  2  0  0  0  0
 23  2  1  0  0  0  0
 24 11  1  0  0  0  0
 25 19  1  0  0  0  0
 26 15  1  0  0  0  0
 27 21  1  0  0  0  0
 28 23  1  0  0  0  0
 29 25  1  0  0  0  0
 30 25  1  0  0  0  0
  5 12  2  0  0  0  0
  6  8  1  0  0  0  0
 18 21  2  0  0  0  0
M  END
> <From>
www.bindingDB.org

> <BindingDB Reactant_set_id>
51105764

> <Ligand InChI>
InChI=1S/C23H26O7/c1-12(2)8-19(29-14(4)24)16-6-7-18-20(22(16)27-5)23(26)28-11-15-9-13(3)10-17(25)21(15)30-18/h6-7,9-10,12,19,25H,8,11H2,1-5H3/t19-/m0/s1

> <Ligand InChI Key>
NUYFKDBCHFKOBT-IBGZPJMESA-N

> <BindingDB MonomerID>
50281511

> <BindingDB Ligand Name>
Acetic acid (S)-1-(11-hydroxy-4-methoxy-9-methyl-5-oxo-5H,7H-6,12-dioxa-dibenzo[a,d]cycloocten-3-yl)-3-methyl-butyl ester::CHEMBL116226

> <Target Name>
Sterol O-acyltransferase 2

> <Target Source Organism According to Curator or DataSource>


> <Ki (nM)>


> <IC50 (nM)>
 1800

> <Kd (nM)>


> <EC50 (nM)>


> <kon (M-1-s-1)>


> <koff (s-1)>


> <pH>


> <Temp (C)>


> <Curation/DataSource>
ChEMBL

> <Article DOI>
10.1021/acs.jnatprod.7b00137

> <BindingDB Entry DOI>
10.7270/Q2251MS3

> <PMID>
28294609

> <PubChem AID>


> <Patent Number>


> <Authors>
Iwasaki, A; Tadenuma, T; Sumimoto, S; Ohshiro, T; Ozaki, K; Kobayashi, K; Teruya, T; Tomoda, H; Suenaga, K

> <Institution>
Keio University

> <Link to Ligand in BindingDB>
http://www.bindingdb.org/bind/chemsearch/marvin/MolStructure.jsp?monomerid=50281511

> <Link to Target in BindingDB>
http://www.bindingdb.org/jsp/dbsearch/PrimarySearch_ki.jsp?energyterm=kJ/mole&tag=pol&polymerid=50007205&target=Sterol+O-acyltransferase+2&column=ki&startPg=0&Increment=50&submit=Search

> <Link to Ligand-Target Pair in BindingDB>
http://www.bindingdb.org/jsp/dbsearch/PrimarySearch_ki.jsp?energyterm=kJ/mole&tag=r21&monomerid=50281511&enzyme=Sterol+O-acyltransferase+2&column=ki&startPg=0&Increment=50&submit=Search

> <Ligand HET ID in PDB>


> <PDB ID(s) for Ligand-Target Complex>


> <PubChem CID>
10341722

> <PubChem SID>
104123185

> <ChEBI ID of Ligand>
65444

> <ChEMBL ID of Ligand>
CHEMBL116226

> <DrugBank ID of Ligand>


> <IUPHAR_GRAC ID of Ligand>


> <KEGG ID of Ligand>


> <ZINC ID of Ligand>
ZINC06070257

> <Number of Protein Chains in Target (>1 implies a multichain complex)>
1

> <BindingDB Target Chain Sequence>
MEPGGARLRLQRTEGPGGEREHQPCRDGNTETHRAPDLVKWTRHMEAVKAQLLEQAQGQLRELLDRAMWEAIQSYPSQDKPPPLPPPDSLSRTQEPSLGKQKVFIIRKSLLDELMEVQHFRTIYHMFIAGLCVFIISTLAIDFIDEGRLLLEFDLLIFSFGQLPLALVTWVPMFLSTLLAPYQALRLWARPGARGTWTLGAGLGCALLAAHALVLCALPVHVAVEHQLPPASRCVLVFEQVRFLMKSYSFLREAVPGTLRARRGEGIQAPSFSSYLYFLFCPTLIYRETYPRTPYIRWNYVAKNFAQALGCVLYACFILGRLCVPVFANMSREPFSTRALVLSILHATLPGIFMLLLIFFAFLHCWLNAFAEMLRFGDRMFYRDWWNSTSFSNYYRTWNVVVHDWLYSYVYQDGLWLLGAQARGVAMLGVFLVSAVAHEYIFCFVLGFFYPVMLILFLVIGGMLNFMMHDQHTGPAWNVLMWTMLFLGQGIQVSLYCQEWYARRHCPLPQTTFWGLVTPRSWSCHT

> <PDB ID(s) of Target Chain>


> <UniProt (SwissProt) Recommended Name of Target Chain>
Sterol O-acyltransferase 2

> <UniProt (SwissProt) Entry Name of Target Chain>
ACAT-2

> <UniProt (SwissProt) Primary ID of Target Chain>
O77759

> <UniProt (SwissProt) Secondary ID(s) of Target Chain>


> <UniProt (SwissProt) Alternative ID(s) of Target Chain>


> <UniProt (TrEMBL) Submitted Name of Target Chain>


> <UniProt (TrEMBL) Entry Name of Target Chain>


> <UniProt (TrEMBL) Primary ID of Target Chain>


> <UniProt (TrEMBL) Secondary ID(s) of Target Chain>


> <UniProt (TrEMBL) Alternative ID(s) of Target Chain>


$$$$

  SciTegic09261414532D

 36 40  0  0  0  0            999 V2000
   10.5375   -1.8919    0.0000 C   0  0
   10.5573   -2.7168    0.0000 C   0  0
    9.8140   -1.4954    0.0000 O   0  0
   11.2413   -1.4637    0.0000 O   0  0
    9.8535   -3.1451    0.0000 C   0  0  1  0  0  0
    9.1299   -2.7485    0.0000 C   0  0
    8.4261   -3.1769    0.0000 C   0  0
    8.4459   -4.0016    0.0000 C   0  0  1  0  0  0
    9.1694   -4.3982    0.0000 C   0  0
    9.8732   -3.9699    0.0000 C   0  0
    7.7421   -4.4299    0.0000 C   0  0
    7.0185   -4.0334    0.0000 C   0  0
    6.3148   -4.4617    0.0000 C   0  0
    6.3345   -5.2866    0.0000 C   0  0
    7.0580   -5.6831    0.0000 C   0  0
    7.7618   -5.2548    0.0000 C   0  0
    3.4798   -5.3500    0.0000 O   0  0
    4.2034   -5.7466    0.0000 C   0  0
    4.2231   -6.5714    0.0000 C   0  0
    3.5193   -6.9996    0.0000 N   0  0
    2.7958   -6.6031    0.0000 C   0  0
    2.7760   -5.7783    0.0000 C   0  0  1  0  0  0
    4.9466   -6.9680    0.0000 C   0  0
    5.6504   -6.5396    0.0000 C   0  0
    5.6306   -5.7148    0.0000 C   0  0
    4.9072   -5.3183    0.0000 C   0  0
    3.5391   -7.8245    0.0000 C   0  0
    2.8353   -8.2528    0.0000 N   0  0
    4.2604   -8.2175    0.0000 O   0  0
    2.8528   -9.0741    0.0000 C   0  0
    2.1490   -9.5024    0.0000 C   0  0
    2.1688  -10.3272    0.0000 C   0  0
    2.8901  -10.7202    0.0000 C   0  0
    3.5939  -10.2919    0.0000 C   0  0
    3.5764   -9.4707    0.0000 C   0  0
    2.0530   -5.3832    0.0000 C   0  0
  1  2  1  0
  1  3  2  0
  1  4  1  0
  5  6  1  0
  6  7  1  0
  7  8  1  0
  8  9  1  0
  9 10  1  0
  5 10  1  0
 11 12  1  0
 12 13  2  0
 13 14  1  0
 14 15  2  0
 15 16  1  0
 11 16  2  0
 17 18  1  0
 18 19  1  0
 19 20  1  0
 20 21  1  0
 21 22  1  0
 17 22  1  0
 23 24  1  0
 24 25  2  0
 25 26  1  0
 18 26  2  0
 19 23  2  0
 27 28  1  0
 27 29  2  0
 30 31  1  0
 31 32  2  0
 32 33  1  0
 33 34  2  0
 34 35  1  0
 30 35  2  0
 28 30  1  0
 20 27  1  0
 14 25  1  0
  8 11  1  1
  5  2  1  6
 22 36  1  1
M  END
> <From>
www.bindingDB.org

> <BindingDB Reactant_set_id>
50106398

> <Ligand InChI>
InChI=1S/C30H32N2O4/c1-20-19-32(30(35)31-26-5-3-2-4-6-26)27-16-15-25(18-28(27)36-20)24-13-11-23(12-14-24)22-9-7-21(8-10-22)17-29(33)34/h2-6,11-16,18,20-22H,7-10,17,19H2,1H3,(H,31,35)(H,33,34)/t20-,21-,22-/m1/s1

> <Ligand InChI Key>
NJUONLYAPKDMEZ-YPAWHYETSA-N

> <BindingDB MonomerID>
50020045

> <BindingDB Ligand Name>
CHEMBL3287865

> <Target Name>
Sterol O-acyltransferase 2

> <Target Source Organism According to Curator or DataSource>


> <Ki (nM)>


> <IC50 (nM)>
 2000

> <Kd (nM)>


> <EC50 (nM)>


> <kon (M-1-s-1)>


> <koff (s-1)>


> <pH>


> <Temp (C)>


> <Curation/DataSource>
ChEMBL

> <Article DOI>
10.1021/ml400527n

> <BindingDB Entry DOI>
10.7270/Q2KS6T3C

> <PMID>
24900877

> <PubChem AID>


> <Patent Number>


> <Authors>
Zhou, G; Zorn, N; Ting, P; Aslanian, R; Lin, M; Cook, J; Lachowicz, J; Lin, A; Smith, M; Hwa, J; van Heek, M; Walker, S

> <Institution>
Merck Research Laboratories

> <Link to Ligand in BindingDB>
http://www.bindingdb.org/bind/chemsearch/marvin/MolStructure.jsp?monomerid=50020045

> <Link to Target in BindingDB>
http://www.bindingdb.org/jsp/dbsearch/PrimarySearch_ki.jsp?energyterm=kJ/mole&tag=pol&polymerid=7773&target=Sterol+O-acyltransferase+2&column=ki&startPg=0&Increment=50&submit=Search

> <Link to Ligand-Target Pair in BindingDB>
http://www.bindingdb.org/jsp/dbsearch/PrimarySearch_ki.jsp?energyterm=kJ/mole&tag=r21&monomerid=50020045&enzyme=Sterol+O-acyltransferase+2&column=ki&startPg=0&Increment=50&submit=Search

> <Ligand HET ID in PDB>


> <PDB ID(s) for Ligand-Target Complex>


> <PubChem CID>
90644592

> <PubChem SID>
103930968

> <ChEBI ID of Ligand>


> <ChEMBL ID of Ligand>
CHEMBL3287865

> <DrugBank ID of Ligand>


> <IUPHAR_GRAC ID of Ligand>


> <KEGG ID of Ligand>


> <ZINC ID of Ligand>
ZINC28229632

> <Number of Protein Chains in Target (>1 implies a multichain complex)>
1

> <BindingDB Target Chain Sequence>
MEPGGARLRLQRTEGLGGERERQPCGDGNTETHRAPDLVQWTRHMEAVKAQLLEQAQGQLRELLDRAMREAIQSYPSQDKPLPPPPPGSLSRTQEPSLGKQKVFIIRKSLLDELMEVQHFRTIYHMFIAGLCVFIISTLAIDFIDEGRLLLEFDLLIFSFGQLPLALVTWVPMFLSTLLAPYQALRLWARGTWTQATGLGCALLAAHAVVLCALPVHVAVEHQLPPASRCVLVFEQVRFLMKSYSFLREAVPGTLRARRGEGIQAPSFSSYLYFLFCPTLIYRETYPRTPYVRWNYVAKNFAQALGCVLYACFILGRLCVPVFANMSREPFSTRALVLSILHATLPGIFMLLLIFFAFLHCWLNAFAEMLRFGDRMFYRDWWNSTSFSNYYRTWNVVVHDWLYSYVYQDGLRLLGARARGVAMLGVFLVSAVAHEYIFCFVLGFFYPVMLILFLVIGGMLNFMMHDQRTGPAWNVLMWTMLFLGQGIQVSLYCQEWYARRHCPLPQATFWGLVTPRSWSCHT

> <PDB ID(s) of Target Chain>


> <UniProt (SwissProt) Recommended Name of Target Chain>
Sterol O-acyltransferase 2

> <UniProt (SwissProt) Entry Name of Target Chain>
ACAT-2

> <UniProt (SwissProt) Primary ID of Target Chain>
O75908

> <UniProt (SwissProt) Secondary ID(s) of Target Chain>
F5H7W4 I6L9H9 Q4VB99 Q4VBA1 Q96TD4 Q9UNR2

> <UniProt (SwissProt) Alternative ID(s) of Target Chain>


> <UniProt (TrEMBL) Submitted Name of Target Chain>


> <UniProt (TrEMBL) Entry Name of Target Chain>


> <UniProt (TrEMBL) Primary ID of Target Chain>


> <UniProt (TrEMBL) Secondary ID(s) of Target Chain>


> <UniProt (TrEMBL) Alternative ID(s) of Target Chain>


$$$$

  Mrv0541 11221400362D          

 37 39  0  0  0  0            999 V2000
    8.5878  -25.7040    0.0000 C   0  0  0  0  0  0  0  0  0  0  0  0
    8.5865  -26.5316    0.0000 C   0  0  0  0  0  0  0  0  0  0  0  0
    9.2995  -26.9446    0.0000 C   0  0  0  0  0  0  0  0  0  0  0  0
   10.0189  -26.5311    0.0000 C   0  0  0  0  0  0  0  0  0  0  0  0
    9.2976  -25.2912    0.0000 C   0  0  0  0  0  0  0  0  0  0  0  0
    9.2937  -24.4662    0.0000 N   0  0  0  0  0  0  0  0  0  0  0  0
    7.8730  -25.2921    0.0000 F   0  0  0  0  0  0  0  0  0  0  0  0
    9.2981  -27.7696    0.0000 F   0  0  0  0  0  0  0  0  0  0  0  0
   10.0062  -24.0503    0.0000 C   0  0  0  0  0  0  0  0  0  0  0  0
   10.0024  -23.2253    0.0000 O   0  0  0  0  0  0  0  0  0  0  0  0
   10.7227  -24.4595    0.0000 N   0  0  0  0  0  0  0  0  0  0  0  0
   11.4353  -24.0437    0.0000 C   0  0  0  0  0  0  0  0  0  0  0  0
   10.7265  -25.2845    0.0000 C   0  0  0  0  0  0  0  0  0  0  0  0
   10.0139  -25.7003    0.0000 C   0  0  0  0  0  0  0  0  0  0  0  0
   11.4430  -25.6937    0.0000 C   0  0  0  0  0  0  0  0  0  0  0  0
   11.4468  -26.5186    0.0000 C   0  0  0  0  0  0  0  0  0  0  0  0
   12.1584  -26.9249    0.0000 C   0  0  0  0  0  0  0  0  0  0  0  0
   12.8789  -26.5230    0.0000 C   0  0  0  0  0  0  0  0  0  0  0  0
   12.8911  -25.6981    0.0000 C   0  0  0  0  0  0  0  0  0  0  0  0
   13.6117  -25.2963    0.0000 C   0  0  0  0  0  0  0  0  0  0  0  0
   11.4314  -23.2187    0.0000 C   0  0  0  0  0  0  0  0  0  0  0  0
   12.1439  -22.8029    0.0000 C   0  0  0  0  0  0  0  0  0  0  0  0
   12.8603  -23.2120    0.0000 C   0  0  0  0  0  0  0  0  0  0  0  0
   13.5728  -22.7961    0.0000 C   0  0  0  0  0  0  0  0  0  0  0  0
   14.2893  -23.2052    0.0000 N   0  0  0  0  0  0  0  0  0  0  0  0
   15.0019  -22.7894    0.0000 C   0  0  0  0  0  0  0  0  0  0  0  0
   15.7173  -23.2015    0.0000 N   0  0  0  0  0  0  0  0  0  0  0  0
   16.4294  -22.7864    0.0000 N   0  0  0  0  0  0  0  0  0  0  0  0
   16.4260  -21.9605    0.0000 C   0  0  0  0  0  0  0  0  0  0  0  0
   15.7046  -21.5515    0.0000 C   0  0  0  0  0  0  0  0  0  0  0  0
   14.9955  -21.9689    0.0000 C   0  0  0  0  0  0  0  0  0  0  0  0
   17.1359  -21.5446    0.0000 C   0  0  0  0  0  0  0  0  0  0  0  0
   17.8532  -21.9545    0.0000 C   0  0  0  0  0  0  0  0  0  0  0  0
   18.5648  -21.5385    0.0000 C   0  0  0  0  0  0  0  0  0  0  0  0
   18.5603  -20.7126    0.0000 C   0  0  0  0  0  0  0  0  0  0  0  0
   17.8382  -20.3046    0.0000 C   0  0  0  0  0  0  0  0  0  0  0  0
   17.1297  -20.7230    0.0000 C   0  0  0  0  0  0  0  0  0  0  0  0
  4 14  2  0  0  0  0
 18 19  1  0  0  0  0
  6  9  1  0  0  0  0
 19 20  1  0  0  0  0
 12 21  1  0  0  0  0
  9 10  2  0  0  0  0
 21 22  1  0  0  0  0
 14  5  1  0  0  0  0
 22 23  1  0  0  0  0
  9 11  1  0  0  0  0
 23 24  1  0  0  0  0
  5  1  2  0  0  0  0
 24 25  1  0  0  0  0
 11 12  1  0  0  0  0
 25 26  1  0  0  0  0
  2  3  2  0  0  0  0
 26 27  2  0  0  0  0
 11 13  1  0  0  0  0
 27 28  1  0  0  0  0
  5  6  1  0  0  0  0
 28 29  2  0  0  0  0
  1  2  1  0  0  0  0
 29 30  1  0  0  0  0
 13 15  1  0  0  0  0
 30 31  2  0  0  0  0
 31 26  1  0  0  0  0
  1  7  1  0  0  0  0
 15 16  1  0  0  0  0
 32 33  2  0  0  0  0
  3  4  1  0  0  0  0
 33 34  1  0  0  0  0
 16 17  1  0  0  0  0
 34 35  2  0  0  0  0
  3  8  1  0  0  0  0
 35 36  1  0  0  0  0
 17 18  1  0  0  0  0
 36 37  2  0  0  0  0
 37 32  1  0  0  0  0
 29 32  1  0  0  0  0
M  END
> <From>
www.bindingDB.org

> <BindingDB Reactant_set_id>
50329416

> <Ligand InChI>
InChI=1S/C29H37F2N5O/c1-2-3-4-5-11-20-36(29(37)33-27-16-15-24(30)22-25(27)31)21-12-7-10-19-32-28-18-17-26(34-35-28)23-13-8-6-9-14-23/h6,8-9,13-18,22H,2-5,7,10-12,19-21H2,1H3,(H,32,35)(H,33,37)

> <Ligand InChI Key>
LVXRNPYYYWSPQE-UHFFFAOYSA-N

> <BindingDB MonomerID>
50177891

> <BindingDB Ligand Name>
CHEMBL200625::N-(2,4-difluorophenyl)-N'-heptyl-N'-{5-[(6-phenyl-pyridazin-3-yl)amino]pentyl}urea

> <Target Name>
Sterol O-acyltransferase 2

> <Target Source Organism According to Curator or DataSource>


> <Ki (nM)>


> <IC50 (nM)>
 2070

> <Kd (nM)>


> <EC50 (nM)>


> <kon (M-1-s-1)>


> <koff (s-1)>


> <pH>


> <Temp (C)>


> <Curation/DataSource>
ChEMBL

> <Article DOI>
10.1021/jm050703x

> <BindingDB Entry DOI>
10.7270/Q2KS6R40

> <PMID>
16302810

> <PubChem AID>


> <Patent Number>


> <Authors>
Gelain, A; Bettinelli, I; Barlocco, D; Kwon, BM; Jeong, TS; Cho, KH; Toma, L

> <Institution>
Universit&#224; di Milano

> <Link to Ligand in BindingDB>
http://www.bindingdb.org/bind/chemsearch/marvin/MolStructure.jsp?monomerid=50177891

> <Link to Target in BindingDB>
http://www.bindingdb.org/jsp/dbsearch/PrimarySearch_ki.jsp?energyterm=kJ/mole&tag=pol&polymerid=7773&target=Sterol+O-acyltransferase+2&column=ki&startPg=0&Increment=50&submit=Search

> <Link to Ligand-Target Pair in BindingDB>
http://www.bindingdb.org/jsp/dbsearch/PrimarySearch_ki.jsp?energyterm=kJ/mole&tag=r21&monomerid=50177891&enzyme=Sterol+O-acyltransferase+2&column=ki&startPg=0&Increment=50&submit=Search

> <Ligand HET ID in PDB>


> <PDB ID(s) for Ligand-Target Complex>


> <PubChem CID>
11577081

> <PubChem SID>
104063288

> <ChEBI ID of Ligand>


> <ChEMBL ID of Ligand>
CHEMBL200625

> <DrugBank ID of Ligand>


> <IUPHAR_GRAC ID of Ligand>


> <KEGG ID of Ligand>


> <ZINC ID of Ligand>
ZINC36331577

> <Number of Protein Chains in Target (>1 implies a multichain complex)>
1

> <BindingDB Target Chain Sequence>
MEPGGARLRLQRTEGLGGERERQPCGDGNTETHRAPDLVQWTRHMEAVKAQLLEQAQGQLRELLDRAMREAIQSYPSQDKPLPPPPPGSLSRTQEPSLGKQKVFIIRKSLLDELMEVQHFRTIYHMFIAGLCVFIISTLAIDFIDEGRLLLEFDLLIFSFGQLPLALVTWVPMFLSTLLAPYQALRLWARGTWTQATGLGCALLAAHAVVLCALPVHVAVEHQLPPASRCVLVFEQVRFLMKSYSFLREAVPGTLRARRGEGIQAPSFSSYLYFLFCPTLIYRETYPRTPYVRWNYVAKNFAQALGCVLYACFILGRLCVPVFANMSREPFSTRALVLSILHATLPGIFMLLLIFFAFLHCWLNAFAEMLRFGDRMFYRDWWNSTSFSNYYRTWNVVVHDWLYSYVYQDGLRLLGARARGVAMLGVFLVSAVAHEYIFCFVLGFFYPVMLILFLVIGGMLNFMMHDQRTGPAWNVLMWTMLFLGQGIQVSLYCQEWYARRHCPLPQATFWGLVTPRSWSCHT

> <PDB ID(s) of Target Chain>


> <UniProt (SwissProt) Recommended Name of Target Chain>
Sterol O-acyltransferase 2

> <UniProt (SwissProt) Entry Name of Target Chain>
ACAT-2

> <UniProt (SwissProt) Primary ID of Target Chain>
O75908

> <UniProt (SwissProt) Secondary ID(s) of Target Chain>
F5H7W4 I6L9H9 Q4VB99 Q4VBA1 Q96TD4 Q9UNR2

> <UniProt (SwissProt) Alternative ID(s) of Target Chain>


> <UniProt (TrEMBL) Submitted Name of Target Chain>


> <UniProt (TrEMBL) Entry Name of Target Chain>


> <UniProt (TrEMBL) Primary ID of Target Chain>


> <UniProt (TrEMBL) Secondary ID(s) of Target Chain>


> <UniProt (TrEMBL) Alternative ID(s) of Target Chain>


$$$$

     RDKit          2D

 23 22  0  0  0  0  0  0  0  0999 V2000
   23.9376   -5.2334    0.0000 C   0  0  0  0  0  0  0  0  0  0  0  0
   24.6521   -4.8209    0.0000 C   0  0  0  0  0  0  0  0  0  0  0  0
   25.3666   -5.2334    0.0000 C   0  0  0  0  0  0  0  0  0  0  0  0
   24.6521   -3.9958    0.0000 C   0  0  0  0  0  0  0  0  0  0  0  0
   26.0811   -4.8209    0.0000 C   0  0  0  0  0  0  0  0  0  0  0  0
   26.7956   -5.2334    0.0000 C   0  0  0  0  0  0  0  0  0  0  0  0
   26.7956   -6.0584    0.0000 O   0  0  0  0  0  0  0  0  0  0  0  0
   27.5101   -4.8209    0.0000 N   0  0  0  0  0  0  0  0  0  0  0  0
   28.2245   -5.2334    0.0000 C   0  0  0  0  0  0  0  0  0  0  0  0
   28.9390   -4.8209    0.0000 C   0  0  0  0  0  0  0  0  0  0  0  0
   28.2245   -6.0584    0.0000 C   0  0  0  0  0  0  0  0  0  0  0  0
   27.5101   -6.4709    0.0000 O   0  0  0  0  0  0  0  0  0  0  0  0
   28.9390   -6.4709    0.0000 C   0  0  0  0  0  0  0  0  0  0  0  0
   28.9390   -7.2959    0.0000 C   0  0  0  0  0  0  0  0  0  0  0  0
   29.6535   -5.2334    0.0000 C   0  0  0  0  0  0  0  0  0  0  0  0
   30.3679   -4.8209    0.0000 C   0  0  0  0  0  0  0  0  0  0  0  0
   29.6535   -6.0584    0.0000 C   0  0  0  0  0  0  0  0  0  0  0  0
   31.0824   -5.2334    0.0000 Cl  0  0  0  0  0  0  0  0  0  0  0  0
   30.3679   -3.9958    0.0000 Cl  0  0  0  0  0  0  0  0  0  0  0  0
   31.0794   -4.4001    0.0000 Cl  0  0  0  0  0  0  0  0  0  0  0  0
   23.2232   -4.8209    0.0000 Cl  0  0  0  0  0  0  0  0  0  0  0  0
   23.9376   -6.0584    0.0000 Cl  0  0  0  0  0  0  0  0  0  0  0  0
   23.2209   -5.6417    0.0000 Cl  0  0  0  0  0  0  0  0  0  0  0  0
  1  2  1  0
  2  3  1  0
  2  4  1  1
  5  3  2  0
  5  6  1  0
  6  7  2  0
  6  8  1  0
  8  9  1  0
  9 10  1  1
  9 11  1  0
 11 12  2  0
 11 13  1  0
 13 14  1  0
 10 15  1  0
 15 16  1  0
 15 17  1  1
 16 18  1  0
 16 19  1  0
 16 20  1  0
  1 21  1  0
  1 22  1  0
  1 23  1  0
M  END
> <From>
www.bindingDB.org

> <BindingDB Reactant_set_id>
51125424

> <Ligand InChI>
InChI=1S/C14H19Cl6NO2/c1-4-11(22)10(7-9(3)14(18,19)20)21-12(23)6-5-8(2)13(15,16)17/h5-6,8-10H,4,7H2,1-3H3,(H,21,23)/b6-5+/t8-,9-,10-/m0/s1

> <Ligand InChI Key>
ZQVVKTNITFQVMX-JKNZDJNPSA-N

> <BindingDB MonomerID>
50461447

> <BindingDB Ligand Name>
CHEMBL4228016

> <Target Name>
Sterol O-acyltransferase 2

> <Target Source Organism According to Curator or DataSource>


> <Ki (nM)>


> <IC50 (nM)>
 2400

> <Kd (nM)>


> <EC50 (nM)>


> <kon (M-1-s-1)>


> <koff (s-1)>


> <pH>


> <Temp (C)>


> <Curation/DataSource>
ChEMBL

> <Article DOI>
10.1016/j.bmcl.2018.03.077

> <BindingDB Entry DOI>
10.7270/Q25Q4ZRC

> <PMID>
29631961

> <PubChem AID>


> <Patent Number>


> <Authors>
Kapojos, MM; Abdjul, DB; Yamazaki, H; Ohshiro, T; Rotinsulu, H; Wewengkang, DS; Sumilat, DA; Tomoda, H; Namikoshi, M; Uchida, R

> <Institution>
Tohoku Medical and Pharmaceutical University

> <Link to Ligand in BindingDB>
http://www.bindingdb.org/bind/chemsearch/marvin/MolStructure.jsp?monomerid=50461447

> <Link to Target in BindingDB>
http://www.bindingdb.org/jsp/dbsearch/PrimarySearch_ki.jsp?energyterm=kJ/mole&tag=pol&polymerid=50007205&target=Sterol+O-acyltransferase+2&column=ki&startPg=0&Increment=50&submit=Search

> <Link to Ligand-Target Pair in BindingDB>
http://www.bindingdb.org/jsp/dbsearch/PrimarySearch_ki.jsp?energyterm=kJ/mole&tag=r21&monomerid=50461447&enzyme=Sterol+O-acyltransferase+2&column=ki&startPg=0&Increment=50&submit=Search

> <Ligand HET ID in PDB>


> <PDB ID(s) for Ligand-Target Complex>


> <PubChem CID>
145969558

> <PubChem SID>
433928712

> <ChEBI ID of Ligand>


> <ChEMBL ID of Ligand>


> <DrugBank ID of Ligand>


> <IUPHAR_GRAC ID of Ligand>


> <KEGG ID of Ligand>


> <ZINC ID of Ligand>


> <Number of Protein Chains in Target (>1 implies a multichain complex)>
1

> <BindingDB Target Chain Sequence>
MEPGGARLRLQRTEGPGGEREHQPCRDGNTETHRAPDLVKWTRHMEAVKAQLLEQAQGQLRELLDRAMWEAIQSYPSQDKPPPLPPPDSLSRTQEPSLGKQKVFIIRKSLLDELMEVQHFRTIYHMFIAGLCVFIISTLAIDFIDEGRLLLEFDLLIFSFGQLPLALVTWVPMFLSTLLAPYQALRLWARPGARGTWTLGAGLGCALLAAHALVLCALPVHVAVEHQLPPASRCVLVFEQVRFLMKSYSFLREAVPGTLRARRGEGIQAPSFSSYLYFLFCPTLIYRETYPRTPYIRWNYVAKNFAQALGCVLYACFILGRLCVPVFANMSREPFSTRALVLSILHATLPGIFMLLLIFFAFLHCWLNAFAEMLRFGDRMFYRDWWNSTSFSNYYRTWNVVVHDWLYSYVYQDGLWLLGAQARGVAMLGVFLVSAVAHEYIFCFVLGFFYPVMLILFLVIGGMLNFMMHDQHTGPAWNVLMWTMLFLGQGIQVSLYCQEWYARRHCPLPQTTFWGLVTPRSWSCHT

> <PDB ID(s) of Target Chain>


> <UniProt (SwissProt) Recommended Name of Target Chain>
Sterol O-acyltransferase 2

> <UniProt (SwissProt) Entry Name of Target Chain>
ACAT-2

> <UniProt (SwissProt) Primary ID of Target Chain>
O77759

> <UniProt (SwissProt) Secondary ID(s) of Target Chain>


> <UniProt (SwissProt) Alternative ID(s) of Target Chain>


> <UniProt (TrEMBL) Submitted Name of Target Chain>


> <UniProt (TrEMBL) Entry Name of Target Chain>


> <UniProt (TrEMBL) Primary ID of Target Chain>


> <UniProt (TrEMBL) Secondary ID(s) of Target Chain>


> <UniProt (TrEMBL) Alternative ID(s) of Target Chain>


$$$$

  Mrv0541 11231414382D          

 57 62  0  0  0  0            999 V2000
   19.1833  -23.9292    0.0000 C   0  0  0  0  0  0  0  0  0  0  0  0
   19.6000  -24.6458    0.0000 C   0  0  2  0  0  0  0  0  0  0  0  0
   20.0123  -23.9267    0.0000 C   0  0  2  0  0  0  0  0  0  0  0  0
   19.2997  -21.3152    0.0000 C   0  0  0  0  0  0  0  0  0  0  0  0
   19.2979  -19.6622    0.0000 N   0  0  0  0  0  0  0  0  0  0  0  0
   20.0133  -20.0713    0.0000 C   0  0  0  0  0  0  0  0  0  0  0  0
   20.0141  -20.8982    0.0000 C   0  0  0  0  0  0  0  0  0  0  0  0
   19.3016  -22.1402    0.0000 O   0  0  0  0  0  0  0  0  0  0  0  0
   18.5881  -22.5541    0.0000 C   0  0  1  0  0  0  0  0  0  0  0  0
   17.7639  -22.5534    0.0000 C   0  0  0  0  0  0  0  0  0  0  0  0
   17.5081  -23.3378    0.0000 N   0  0  0  0  0  0  0  0  0  0  0  0
   18.1751  -23.8234    0.0000 C   0  0  1  0  0  0  0  0  0  0  0  0
   18.8429  -23.3391    0.0000 C   0  0  0  0  0  0  0  0  0  0  0  0
   18.1743  -24.6484    0.0000 C   0  0  0  0  0  0  0  0  0  0  0  0
   17.4594  -25.0603    0.0000 O   0  0  0  0  0  0  0  0  0  0  0  0
   18.8884  -25.0616    0.0000 N   0  0  0  0  0  0  0  0  0  0  0  0
   20.3173  -25.0630    0.0000 C   0  0  0  0  0  0  0  0  0  0  0  0
   20.3194  -25.8868    0.0000 O   0  0  0  0  0  0  0  0  0  0  0  0
   21.0350  -24.6500    0.0000 O   0  0  0  0  0  0  0  0  0  0  0  0
   20.7255  -23.5120    0.0000 C   0  0  0  0  0  0  0  0  0  0  0  0
   21.4413  -23.9223    0.0000 C   0  0  0  0  0  0  0  0  0  0  0  0
   16.7232  -23.5919    0.0000 C   0  0  0  0  0  0  0  0  0  0  0  0
   16.1107  -23.0392    0.0000 C   0  0  2  0  0  0  0  0  0  0  0  0
   16.5509  -24.3987    0.0000 O   0  0  0  0  0  0  0  0  0  0  0  0
   16.2831  -22.2325    0.0000 C   0  0  0  0  0  0  0  0  0  0  0  0
   15.3258  -23.2934    0.0000 N   0  0  0  0  0  0  0  0  0  0  0  0
   17.0680  -21.9783    0.0000 C   0  0  0  0  0  0  0  0  0  0  0  0
   15.6706  -21.6798    0.0000 C   0  0  0  0  0  0  0  0  0  0  0  0
   16.4917  -21.4292    0.0000 C   0  0  0  0  0  0  0  0  0  0  0  0
   14.7133  -22.7407    0.0000 C   0  0  0  0  0  0  0  0  0  0  0  0
   13.9284  -22.9948    0.0000 O   0  0  0  0  0  0  0  0  0  0  0  0
   14.8857  -21.9339    0.0000 O   0  0  0  0  0  0  0  0  0  0  0  0
   13.3159  -22.4421    0.0000 C   0  0  0  0  0  0  0  0  0  0  0  0
   13.4021  -21.6255    0.0000 C   0  0  0  0  0  0  0  0  0  0  0  0
   12.6487  -21.2891    0.0000 C   0  0  0  0  0  0  0  0  0  0  0  0
   12.0960  -21.9017    0.0000 C   0  0  0  0  0  0  0  0  0  0  0  0
   12.5079  -22.6165    0.0000 C   0  0  0  0  0  0  0  0  0  0  0  0
   18.5849  -20.9023    0.0000 C   0  0  0  0  0  0  0  0  0  0  0  0
   18.5872  -20.0768    0.0000 C   0  0  0  0  0  0  0  0  0  0  0  0
   17.8745  -19.6638    0.0000 C   0  0  0  0  0  0  0  0  0  0  0  0
   17.1591  -20.0752    0.0000 C   0  0  0  0  0  0  0  0  0  0  0  0
   17.1608  -20.9040    0.0000 C   0  0  0  0  0  0  0  0  0  0  0  0
   17.8740  -21.3132    0.0000 C   0  0  0  0  0  0  0  0  0  0  0  0
   16.4445  -19.6629    0.0000 O   0  0  0  0  0  0  0  0  0  0  0  0
   16.4444  -18.8379    0.0000 C   0  0  0  0  0  0  0  0  0  0  0  0
   20.7267  -19.6570    0.0000 C   0  0  0  0  0  0  0  0  0  0  0  0
   21.4807  -19.9870    0.0000 N   0  0  0  0  0  0  0  0  0  0  0  0
   22.0312  -19.3725    0.0000 C   0  0  0  0  0  0  0  0  0  0  0  0
   21.6169  -18.6591    0.0000 S   0  0  0  0  0  0  0  0  0  0  0  0
   20.8104  -18.8327    0.0000 C   0  0  0  0  0  0  0  0  0  0  0  0
   22.8519  -19.4567    0.0000 N   0  0  0  0  0  0  0  0  0  0  0  0
   23.3352  -18.7881    0.0000 C   0  0  0  0  0  0  0  0  0  0  0  0
   24.1559  -18.8722    0.0000 C   0  0  0  0  0  0  0  0  0  0  0  0
   22.9977  -18.0352    0.0000 O   0  0  0  0  0  0  0  0  0  0  0  0
   24.6391  -18.2036    0.0000 C   0  0  0  0  0  0  0  0  0  0  0  0
   17.8759  -18.8388    0.0000 Br  0  0  0  0  0  0  0  0  0  0  0  0
   24.4933  -19.6251    0.0000 C   0  0  0  0  0  0  0  0  0  0  0  0
 12 13  1  0  0  0  0
 25 28  1  0  0  0  0
  9 13  1  0  0  0  0
 25 29  1  0  0  0  0
  2  1  1  0  0  0  0
 26 30  1  0  0  0  0
 12 14  1  1  0  0  0
 30 31  1  0  0  0  0
  2  3  1  0  0  0  0
 30 32  2  0  0  0  0
 14 15  2  0  0  0  0
 31 33  1  0  0  0  0
 33 34  1  0  0  0  0
  6  7  2  0  0  0  0
 14 16  1  0  0  0  0
  2 16  1  6  0  0  0
  3  1  1  0  0  0  0
 34 35  1  0  0  0  0
 35 36  1  0  0  0  0
 36 37  1  0  0  0  0
 37 33  1  0  0  0  0
  2 17  1  1  0  0  0
  4  8  1  0  0  0  0
 38  4  2  0  0  0  0
 38 39  1  0  0  0  0
 17 18  1  0  0  0  0
 39 40  1  0  0  0  0
 17 19  2  0  0  0  0
 40 41  2  0  0  0  0
  9  8  1  6  0  0  0
 41 42  1  0  0  0  0
  3 20  1  1  0  0  0
 42 43  2  0  0  0  0
 43 38  1  0  0  0  0
  9 10  1  0  0  0  0
 41 44  1  0  0  0  0
 20 21  2  0  0  0  0
 44 45  1  0  0  0  0
  4  7  1  0  0  0  0
  6 46  1  0  0  0  0
 46 47  1  0  0  0  0
 11 22  1  0  0  0  0
 23 22  1  0  0  0  0
  6  5  1  0  0  0  0
 47 48  2  0  0  0  0
 48 49  1  0  0  0  0
 49 50  1  0  0  0  0
 50 46  2  0  0  0  0
 22 24  2  0  0  0  0
 48 51  1  0  0  0  0
  5 39  2  0  0  0  0
 51 52  1  0  0  0  0
 23 25  1  0  0  0  0
 52 53  1  0  0  0  0
 10 11  1  0  0  0  0
 52 54  2  0  0  0  0
 23 26  1  1  0  0  0
 53 55  1  0  0  0  0
 12 11  1  0  0  0  0
 40 56  1  0  0  0  0
 25 27  1  0  0  0  0
 53 57  1  0  0  0  0
M  END
> <From>
www.bindingDB.org

> <BindingDB Reactant_set_id>
50622463

> <Ligand InChI>
InChI=1S/C40H49BrN6O9S/c1-8-21-17-40(21,36(51)52)46-34(49)27-15-23(18-47(27)35(50)32(39(4,5)6)44-38(53)56-22-11-9-10-12-22)55-29-16-25(26-19-57-37(43-26)45-33(48)20(2)3)42-31-24(29)13-14-28(54-7)30(31)41/h8,13-14,16,19-23,27,32H,1,9-12,15,17-18H2,2-7H3,(H,44,53)(H,46,49)(H,51,52)(H,43,45,48)/t21-,23-,27+,32-,40-/m1/s1

> <Ligand InChI Key>
LLGDPTDZOVKFDU-XUHJSTDZSA-N

> <BindingDB MonomerID>
50336545

> <BindingDB Ligand Name>
(1R,2S)-1-((2S,4R)-4-(8-bromo-2-(2-isobutyramidothiazol-4-yl)-7-methoxyquinolin-4-yloxy)-1-((S)-2-(cyclopentyloxycarbonylamino)-3,3-dimethylbutanoyl)pyrrolidine-2-carboxamido)-2-vinylcyclopropanecarboxylic acid::CHEMBL1241348::N-[(cyclopentyloxy)carbonyl]-3-methyl-L-valyl-(4R)-4-[(8-bromo-7-methoxy-2-{2-[(2-methylpropanoyl)amino]-1,3-thiazol-4-yl}quinolin-4-yl)oxy]-N-[(1R,2S)-1-carboxy-2-ethenylcyclopropyl]-L-prolinamide

> <Target Name>
Sterol O-acyltransferase 2

> <Target Source Organism According to Curator or DataSource>
Rattus norvegicus

> <Ki (nM)>


> <IC50 (nM)>
 2400

> <Kd (nM)>


> <EC50 (nM)>


> <kon (M-1-s-1)>


> <koff (s-1)>


> <pH>


> <Temp (C)>


> <Curation/DataSource>
ChEMBL

> <Article DOI>
10.1128/AAC.00787-10

> <BindingDB Entry DOI>
10.7270/Q2NP24Q7

> <PMID>
20823284

> <PubChem AID>


> <Patent Number>


> <Authors>
White, PW; Llinas-Brunet, M; Amad, M; Bethell, RC; Bolger, G; Cordingley, MG; Duan, J; Garneau, M; Lagace, L; Thibeault, D; Kukolj, G

> <Institution>
Boehringer Ingelheim (Canada) Ltd

> <Link to Ligand in BindingDB>
http://www.bindingdb.org/bind/chemsearch/marvin/MolStructure.jsp?monomerid=50336545

> <Link to Target in BindingDB>
http://www.bindingdb.org/jsp/dbsearch/PrimarySearch_ki.jsp?energyterm=kJ/mole&tag=pol&polymerid=50002144&target=Sterol+O-acyltransferase+2&column=ki&startPg=0&Increment=50&submit=Search

> <Link to Ligand-Target Pair in BindingDB>
http://www.bindingdb.org/jsp/dbsearch/PrimarySearch_ki.jsp?energyterm=kJ/mole&tag=r21&monomerid=50336545&enzyme=Sterol+O-acyltransferase+2&column=ki&startPg=0&Increment=50&submit=Search

> <Ligand HET ID in PDB>
L4T

> <PDB ID(s) for Ligand-Target Complex>


> <PubChem CID>
42601552

> <PubChem SID>
125086647

> <ChEBI ID of Ligand>


> <ChEMBL ID of Ligand>
CHEMBL1241348

> <DrugBank ID of Ligand>


> <IUPHAR_GRAC ID of Ligand>


> <KEGG ID of Ligand>


> <ZINC ID of Ligand>


> <Number of Protein Chains in Target (>1 implies a multichain complex)>
1

> <BindingDB Target Chain Sequence>
MEPKAPQLRRRERQGEEQENGACGEGNTRTHRAPDLVQWTRHMEAVKTQCLEQAQRELAELMDRAIWEAVQAYPKQDRPLPSTASDSTRKTQELHPGKRKVFITRKSLLDELMGVQHFRTIYHMFIAGLCVLIISTLAIDFIDEGRLMLEFDLLLFSFGQLPLALMMWVPMFLSTLLLPYQTLRLWARPRSGGAWTLGASLGCVLLAAHAAVLCVLPVHVSVKHELPPASRCVLVFEQVRFLMKSYSFLRETVPGIFCVRGGKGICTPSFSSYLYFLFCPTLIYRETYPRTPSIRWNYVAKNFAQALGCLLYACFILGRLCVPVFANMSREPFSTRALLLSILHATGPGIFMLLLIFFAFLHCWLNAFAEMLRFGDRMFYRDWWNSTSFSNYYRTWNVVVHDWLYSYVYQDGLWLLGRQGRGAAMLGVFLVSALVHEYIFCFVLGFFYPVMLILFLVVGGLLNFTMNDRHTGPAWNILMWTFLFLGQGIQVSLYCQEWYARRHCPLPQPTFWELVTPRSWSCHP

> <PDB ID(s) of Target Chain>


> <UniProt (SwissProt) Recommended Name of Target Chain>
Sterol O-acyltransferase 2

> <UniProt (SwissProt) Entry Name of Target Chain>
ACAT-2

> <UniProt (SwissProt) Primary ID of Target Chain>
Q7TQM4

> <UniProt (SwissProt) Secondary ID(s) of Target Chain>


> <UniProt (SwissProt) Alternative ID(s) of Target Chain>


> <UniProt (TrEMBL) Submitted Name of Target Chain>


> <UniProt (TrEMBL) Entry Name of Target Chain>


> <UniProt (TrEMBL) Primary ID of Target Chain>


> <UniProt (TrEMBL) Secondary ID(s) of Target Chain>


> <UniProt (TrEMBL) Alternative ID(s) of Target Chain>


$$$$

     RDKit          2D

 55 57  0  0  0  0  0  0  0  0999 V2000
   20.0336   -4.1148    0.0000 N   0  0  0  0  0  0  0  0  0  0  0  0
   20.7413   -3.7063    0.0000 C   0  0  0  0  0  0  0  0  0  0  0  0
   19.3259   -3.7063    0.0000 C   0  0  0  0  0  0  0  0  0  0  0  0
   18.6181   -4.1148    0.0000 C   0  0  0  0  0  0  0  0  0  0  0  0
   19.3259   -2.8891    0.0000 O   0  0  0  0  0  0  0  0  0  0  0  0
   17.9104   -3.7063    0.0000 C   0  0  0  0  0  0  0  0  0  0  0  0
   17.2027   -4.1148    0.0000 C   0  0  0  0  0  0  0  0  0  0  0  0
   21.4490   -4.1148    0.0000 C   0  0  0  0  0  0  0  0  0  0  0  0
   20.7413   -2.8891    0.0000 C   0  0  0  0  0  0  0  0  0  0  0  0
   21.4490   -2.4805    0.0000 C   0  0  0  0  0  0  0  0  0  0  0  0
   20.0336   -2.4805    0.0000 C   0  0  0  0  0  0  0  0  0  0  0  0
   21.4490   -4.9320    0.0000 O   0  0  0  0  0  0  0  0  0  0  0  0
   22.1567   -3.7063    0.0000 N   0  0  0  0  0  0  0  0  0  0  0  0
   22.9033   -4.0337    0.0000 C   0  0  0  0  0  0  0  0  0  0  0  0
   23.4501   -3.4264    0.0000 C   0  0  0  0  0  0  0  0  0  0  0  0
   23.0415   -2.7186    0.0000 C   0  0  0  0  0  0  0  0  0  0  0  0
   22.2422   -2.8887    0.0000 C   0  0  0  0  0  0  0  0  0  0  0  0
   22.8979   -4.8495    0.0000 C   0  0  0  0  0  0  0  0  0  0  0  0
   22.1875   -5.2534    0.0000 O   0  0  0  0  0  0  0  0  0  0  0  0
   23.6028   -5.2628    0.0000 N   0  0  0  0  0  0  0  0  0  0  0  0
   23.5974   -6.0800    0.0000 C   0  0  0  0  0  0  0  0  0  0  0  0
   24.3132   -4.8589    0.0000 C   0  0  0  0  0  0  0  0  0  0  0  0
   25.0182   -5.2722    0.0000 C   0  0  0  0  0  0  0  0  0  0  0  0
   24.3187   -4.0417    0.0000 C   0  0  0  0  0  0  0  0  0  0  0  0
   25.0291   -3.6379    0.0000 C   0  0  0  0  0  0  0  0  0  0  0  0
   25.7313   -4.0546    0.0000 C   0  0  0  0  0  0  0  0  0  0  0  0
   26.4412   -3.6514    0.0000 C   0  0  0  0  0  0  0  0  0  0  0  0
   26.4471   -2.8333    0.0000 C   0  0  0  0  0  0  0  0  0  0  0  0
   25.7371   -2.4201    0.0000 C   0  0  0  0  0  0  0  0  0  0  0  0
   25.0301   -2.8257    0.0000 C   0  0  0  0  0  0  0  0  0  0  0  0
   25.0128   -6.0894    0.0000 N   0  0  0  0  0  0  0  0  0  0  0  0
   25.7286   -4.8683    0.0000 O   0  0  0  0  0  0  0  0  0  0  0  0
   25.7178   -6.5027    0.0000 C   0  0  0  0  0  0  0  0  0  0  0  0
   25.7123   -7.3199    0.0000 C   0  0  0  0  0  0  0  0  0  0  0  0
   26.4282   -6.0988    0.0000 C   0  0  0  0  0  0  0  0  0  0  0  0
   27.1331   -6.5121    0.0000 N   0  0  0  0  0  0  0  0  0  0  0  0
   26.4336   -5.2816    0.0000 O   0  0  0  0  0  0  0  0  0  0  0  0
   27.8436   -6.1082    0.0000 C   0  0  0  0  0  0  0  0  0  0  0  0
   28.5485   -6.5215    0.0000 C   0  0  0  0  0  0  0  0  0  0  0  0
   27.8490   -5.2911    0.0000 C   0  0  0  0  0  0  0  0  0  0  0  0
   28.5594   -4.8872    0.0000 C   0  0  0  0  0  0  0  0  0  0  0  0
   27.1440   -4.8778    0.0000 C   0  0  0  0  0  0  0  0  0  0  0  0
   28.5431   -7.3387    0.0000 O   0  0  0  0  0  0  0  0  0  0  0  0
   29.2589   -6.1177    0.0000 N   0  0  0  0  0  0  0  0  0  0  0  0
   29.9639   -6.5310    0.0000 C   0  0  0  0  0  0  0  0  0  0  0  0
   29.2644   -5.3005    0.0000 C   0  0  0  0  0  0  0  0  0  0  0  0
   30.6743   -6.1271    0.0000 C   0  0  0  0  0  0  0  0  0  0  0  0
   31.4189   -6.4618    0.0000 N   0  0  0  0  0  0  0  0  0  0  0  0
   31.9697   -5.8581    0.0000 C   0  0  0  0  0  0  0  0  0  0  0  0
   31.5658   -5.1477    0.0000 C   0  0  0  0  0  0  0  0  0  0  0  0
   30.7654   -5.3124    0.0000 S   0  0  0  0  0  0  0  0  0  0  0  0
   25.0019   -7.7237    0.0000 C   0  0  0  0  0  0  0  0  0  0  0  0
   24.9965   -8.5409    0.0000 C   0  0  0  0  0  0  0  0  0  0  0  0
   24.2969   -7.3104    0.0000 C   0  0  0  0  0  0  0  0  0  0  0  0
   20.0336   -4.9320    0.0000 C   0  0  0  0  0  0  0  0  0  0  0  0
  1  2  1  0
  1  3  1  0
  3  4  1  0
  3  5  2  0
  4  6  1  0
  6  7  1  0
  2  8  1  0
  2  9  1  1
  9 10  1  0
  9 11  1  0
  8 12  2  0
  8 13  1  0
 13 14  1  0
 14 15  1  0
 15 16  1  0
 16 17  1  0
 17 13  1  0
 14 18  1  1
 18 19  2  0
 18 20  1  0
 20 21  1  0
 20 22  1  0
 22 23  1  0
 22 24  1  1
 24 25  1  0
 25 26  2  0
 26 27  1  0
 27 28  2  0
 28 29  1  0
 29 30  2  0
 30 25  1  0
 23 31  1  0
 23 32  2  0
 31 33  1  0
 33 34  1  6
 33 35  1  0
 35 36  1  0
 35 37  2  0
 36 38  1  0
 38 39  1  0
 38 40  1  1
 40 41  1  0
 40 42  1  0
 39 43  2  0
 39 44  1  0
 44 45  1  0
 44 46  1  0
 45 47  1  0
 47 48  2  0
 48 49  1  0
 49 50  2  0
 50 51  1  0
 51 47  1  0
 34 52  1  0
 52 53  1  0
 52 54  1  0
  1 55  1  0
M  END
> <From>
www.bindingDB.org

> <BindingDB Reactant_set_id>
51105765

> <Ligand InChI>
InChI=1S/C41H63N7O6S/c1-11-16-34(49)47(10)36(28(6)7)41(54)48-21-15-19-31(48)39(52)46(9)32(24-29-17-13-12-14-18-29)38(51)43-30(23-26(2)3)37(50)44-35(27(4)5)40(53)45(8)25-33-42-20-22-55-33/h12-14,17-18,20,22,26-28,30-32,35-36H,11,15-16,19,21,23-25H2,1-10H3,(H,43,51)(H,44,50)/t30-,31-,32-,35-,36-/m0/s1

> <Ligand InChI Key>
CHXLGCMMIDZPRB-XGQIDOAOSA-N

> <BindingDB MonomerID>
50450893

> <BindingDB Ligand Name>
CHEMBL4207391

> <Target Name>
Sterol O-acyltransferase 2

> <Target Source Organism According to Curator or DataSource>


> <Ki (nM)>


> <IC50 (nM)>
 2500

> <Kd (nM)>


> <EC50 (nM)>


> <kon (M-1-s-1)>


> <koff (s-1)>


> <pH>


> <Temp (C)>


> <Curation/DataSource>
ChEMBL

> <Article DOI>
10.1021/acs.jnatprod.7b00137

> <BindingDB Entry DOI>
10.7270/Q2251MS3

> <PMID>
28294609

> <PubChem AID>


> <Patent Number>


> <Authors>
Iwasaki, A; Tadenuma, T; Sumimoto, S; Ohshiro, T; Ozaki, K; Kobayashi, K; Teruya, T; Tomoda, H; Suenaga, K

> <Institution>
Keio University

> <Link to Ligand in BindingDB>
http://www.bindingdb.org/bind/chemsearch/marvin/MolStructure.jsp?monomerid=50450893

> <Link to Target in BindingDB>
http://www.bindingdb.org/jsp/dbsearch/PrimarySearch_ki.jsp?energyterm=kJ/mole&tag=pol&polymerid=50007205&target=Sterol+O-acyltransferase+2&column=ki&startPg=0&Increment=50&submit=Search

> <Link to Ligand-Target Pair in BindingDB>
http://www.bindingdb.org/jsp/dbsearch/PrimarySearch_ki.jsp?energyterm=kJ/mole&tag=r21&monomerid=50450893&enzyme=Sterol+O-acyltransferase+2&column=ki&startPg=0&Increment=50&submit=Search

> <Ligand HET ID in PDB>


> <PDB ID(s) for Ligand-Target Complex>


> <PubChem CID>
139589700

> <PubChem SID>
433920235

> <ChEBI ID of Ligand>


> <ChEMBL ID of Ligand>


> <DrugBank ID of Ligand>


> <IUPHAR_GRAC ID of Ligand>


> <KEGG ID of Ligand>


> <ZINC ID of Ligand>


> <Number of Protein Chains in Target (>1 implies a multichain complex)>
1

> <BindingDB Target Chain Sequence>
MEPGGARLRLQRTEGPGGEREHQPCRDGNTETHRAPDLVKWTRHMEAVKAQLLEQAQGQLRELLDRAMWEAIQSYPSQDKPPPLPPPDSLSRTQEPSLGKQKVFIIRKSLLDELMEVQHFRTIYHMFIAGLCVFIISTLAIDFIDEGRLLLEFDLLIFSFGQLPLALVTWVPMFLSTLLAPYQALRLWARPGARGTWTLGAGLGCALLAAHALVLCALPVHVAVEHQLPPASRCVLVFEQVRFLMKSYSFLREAVPGTLRARRGEGIQAPSFSSYLYFLFCPTLIYRETYPRTPYIRWNYVAKNFAQALGCVLYACFILGRLCVPVFANMSREPFSTRALVLSILHATLPGIFMLLLIFFAFLHCWLNAFAEMLRFGDRMFYRDWWNSTSFSNYYRTWNVVVHDWLYSYVYQDGLWLLGAQARGVAMLGVFLVSAVAHEYIFCFVLGFFYPVMLILFLVIGGMLNFMMHDQHTGPAWNVLMWTMLFLGQGIQVSLYCQEWYARRHCPLPQTTFWGLVTPRSWSCHT

> <PDB ID(s) of Target Chain>


> <UniProt (SwissProt) Recommended Name of Target Chain>
Sterol O-acyltransferase 2

> <UniProt (SwissProt) Entry Name of Target Chain>
ACAT-2

> <UniProt (SwissProt) Primary ID of Target Chain>
O77759

> <UniProt (SwissProt) Secondary ID(s) of Target Chain>


> <UniProt (SwissProt) Alternative ID(s) of Target Chain>


> <UniProt (TrEMBL) Submitted Name of Target Chain>


> <UniProt (TrEMBL) Entry Name of Target Chain>


> <UniProt (TrEMBL) Primary ID of Target Chain>


> <UniProt (TrEMBL) Secondary ID(s) of Target Chain>


> <UniProt (TrEMBL) Alternative ID(s) of Target Chain>


$$$$

     RDKit          2D

 26 25  0  0  0  0  0  0  0  0999 V2000
   13.2959   -5.6792    0.0000 C   0  0  0  0  0  0  0  0  0  0  0  0
   14.0104   -5.2667    0.0000 C   0  0  0  0  0  0  0  0  0  0  0  0
   14.7249   -5.6792    0.0000 C   0  0  0  0  0  0  0  0  0  0  0  0
   14.0104   -4.4417    0.0000 C   0  0  0  0  0  0  0  0  0  0  0  0
   15.4393   -5.2667    0.0000 C   0  0  0  0  0  0  0  0  0  0  0  0
   16.1538   -5.6792    0.0000 C   0  0  0  0  0  0  0  0  0  0  0  0
   15.4393   -4.4417    0.0000 N   0  0  0  0  0  0  0  0  0  0  0  0
   16.1538   -4.0292    0.0000 C   0  0  0  0  0  0  0  0  0  0  0  0
   14.7249   -4.0292    0.0000 C   0  0  0  0  0  0  0  0  0  0  0  0
   16.1538   -6.5042    0.0000 O   0  0  0  0  0  0  0  0  0  0  0  0
   16.8683   -5.2667    0.0000 N   0  0  0  0  0  0  0  0  0  0  0  0
   17.5827   -5.6792    0.0000 C   0  0  0  0  0  0  0  0  0  0  0  0
   18.2972   -5.2667    0.0000 C   0  0  0  0  0  0  0  0  0  0  0  0
   17.5827   -6.5042    0.0000 C   0  0  0  0  0  0  0  0  0  0  0  0
   16.8683   -6.9167    0.0000 O   0  0  0  0  0  0  0  0  0  0  0  0
   18.2972   -6.9167    0.0000 C   0  0  0  0  0  0  0  0  0  0  0  0
   18.2972   -7.7417    0.0000 C   0  0  0  0  0  0  0  0  0  0  0  0
   19.0118   -5.6792    0.0000 C   0  0  0  0  0  0  0  0  0  0  0  0
   19.7262   -5.2667    0.0000 C   0  0  0  0  0  0  0  0  0  0  0  0
   19.0118   -6.5042    0.0000 C   0  0  0  0  0  0  0  0  0  0  0  0
   20.4407   -5.6792    0.0000 Cl  0  0  0  0  0  0  0  0  0  0  0  0
   19.7262   -4.4417    0.0000 Cl  0  0  0  0  0  0  0  0  0  0  0  0
   20.4377   -4.8459    0.0000 Cl  0  0  0  0  0  0  0  0  0  0  0  0
   12.5815   -5.2667    0.0000 Cl  0  0  0  0  0  0  0  0  0  0  0  0
   13.2959   -6.5042    0.0000 Cl  0  0  0  0  0  0  0  0  0  0  0  0
   12.5792   -6.0876    0.0000 Cl  0  0  0  0  0  0  0  0  0  0  0  0
  1  2  1  0
  2  3  1  0
  2  4  1  1
  5  3  1  6
  5  6  1  0
  5  7  1  0
  7  8  1  0
  7  9  1  0
  6 10  2  0
  6 11  1  0
 11 12  1  0
 12 13  1  1
 12 14  1  0
 14 15  2  0
 14 16  1  0
 16 17  1  0
 13 18  1  0
 18 19  1  0
 18 20  1  1
 19 21  1  0
 19 22  1  0
 19 23  1  0
  1 24  1  0
  1 25  1  0
  1 26  1  0
M  END
> <From>
www.bindingDB.org

> <BindingDB Reactant_set_id>
51125420

> <Ligand InChI>
InChI=1S/C16H26Cl6N2O2/c1-6-13(25)11(7-9(2)15(17,18)19)23-14(26)12(24(4)5)8-10(3)16(20,21)22/h9-12H,6-8H2,1-5H3,(H,23,26)/t9-,10-,11-,12-/m0/s1

> <Ligand InChI Key>
HOXGICVBHXJSEI-BJDJZHNGSA-N

> <BindingDB MonomerID>
50461446

> <BindingDB Ligand Name>
CHEMBL4227742

> <Target Name>
Sterol O-acyltransferase 2

> <Target Source Organism According to Curator or DataSource>


> <Ki (nM)>


> <IC50 (nM)>
 2800

> <Kd (nM)>


> <EC50 (nM)>


> <kon (M-1-s-1)>


> <koff (s-1)>


> <pH>


> <Temp (C)>


> <Curation/DataSource>
ChEMBL

> <Article DOI>
10.1016/j.bmcl.2018.03.077

> <BindingDB Entry DOI>
10.7270/Q25Q4ZRC

> <PMID>
29631961

> <PubChem AID>


> <Patent Number>


> <Authors>
Kapojos, MM; Abdjul, DB; Yamazaki, H; Ohshiro, T; Rotinsulu, H; Wewengkang, DS; Sumilat, DA; Tomoda, H; Namikoshi, M; Uchida, R

> <Institution>
Tohoku Medical and Pharmaceutical University

> <Link to Ligand in BindingDB>
http://www.bindingdb.org/bind/chemsearch/marvin/MolStructure.jsp?monomerid=50461446

> <Link to Target in BindingDB>
http://www.bindingdb.org/jsp/dbsearch/PrimarySearch_ki.jsp?energyterm=kJ/mole&tag=pol&polymerid=50007205&target=Sterol+O-acyltransferase+2&column=ki&startPg=0&Increment=50&submit=Search

> <Link to Ligand-Target Pair in BindingDB>
http://www.bindingdb.org/jsp/dbsearch/PrimarySearch_ki.jsp?energyterm=kJ/mole&tag=r21&monomerid=50461446&enzyme=Sterol+O-acyltransferase+2&column=ki&startPg=0&Increment=50&submit=Search

> <Ligand HET ID in PDB>


> <PDB ID(s) for Ligand-Target Complex>


> <PubChem CID>
145968634

> <PubChem SID>
433928711

> <ChEBI ID of Ligand>


> <ChEMBL ID of Ligand>


> <DrugBank ID of Ligand>


> <IUPHAR_GRAC ID of Ligand>


> <KEGG ID of Ligand>


> <ZINC ID of Ligand>


> <Number of Protein Chains in Target (>1 implies a multichain complex)>
1

> <BindingDB Target Chain Sequence>
MEPGGARLRLQRTEGPGGEREHQPCRDGNTETHRAPDLVKWTRHMEAVKAQLLEQAQGQLRELLDRAMWEAIQSYPSQDKPPPLPPPDSLSRTQEPSLGKQKVFIIRKSLLDELMEVQHFRTIYHMFIAGLCVFIISTLAIDFIDEGRLLLEFDLLIFSFGQLPLALVTWVPMFLSTLLAPYQALRLWARPGARGTWTLGAGLGCALLAAHALVLCALPVHVAVEHQLPPASRCVLVFEQVRFLMKSYSFLREAVPGTLRARRGEGIQAPSFSSYLYFLFCPTLIYRETYPRTPYIRWNYVAKNFAQALGCVLYACFILGRLCVPVFANMSREPFSTRALVLSILHATLPGIFMLLLIFFAFLHCWLNAFAEMLRFGDRMFYRDWWNSTSFSNYYRTWNVVVHDWLYSYVYQDGLWLLGAQARGVAMLGVFLVSAVAHEYIFCFVLGFFYPVMLILFLVIGGMLNFMMHDQHTGPAWNVLMWTMLFLGQGIQVSLYCQEWYARRHCPLPQTTFWGLVTPRSWSCHT

> <PDB ID(s) of Target Chain>


> <UniProt (SwissProt) Recommended Name of Target Chain>
Sterol O-acyltransferase 2

> <UniProt (SwissProt) Entry Name of Target Chain>
ACAT-2

> <UniProt (SwissProt) Primary ID of Target Chain>
O77759

> <UniProt (SwissProt) Secondary ID(s) of Target Chain>


> <UniProt (SwissProt) Alternative ID(s) of Target Chain>


> <UniProt (TrEMBL) Submitted Name of Target Chain>


> <UniProt (TrEMBL) Entry Name of Target Chain>


> <UniProt (TrEMBL) Primary ID of Target Chain>


> <UniProt (TrEMBL) Secondary ID(s) of Target Chain>


> <UniProt (TrEMBL) Alternative ID(s) of Target Chain>


$$$$

  Mrv0541 04241520582D          

 34 38  0  0  0  0            999 V2000
   29.8488   -3.0203    0.0000 C   0  0  0  0  0  0  0  0  0  0  0  0
   30.5165   -3.5076    0.0000 C   0  0  0  0  0  0  0  0  0  0  0  0
   31.2696   -3.1728    0.0000 C   0  0  0  0  0  0  0  0  0  0  0  0
   31.3567   -2.3516    0.0000 C   0  0  0  0  0  0  0  0  0  0  0  0
   30.6843   -1.8673    0.0000 C   0  0  0  0  0  0  0  0  0  0  0  0
   29.9338   -2.2049    0.0000 C   0  0  0  0  0  0  0  0  0  0  0  0
   32.1098   -2.0148    0.0000 C   0  0  2  0  0  0  0  0  0  0  0  0
   32.7783   -2.5033    0.0000 C   0  0  0  0  0  0  0  0  0  0  0  0
   33.5290   -2.1697    0.0000 C   0  0  0  0  0  0  0  0  0  0  0  0
   33.6182   -1.3493    0.0000 C   0  0  2  0  0  0  0  0  0  0  0  0
   32.9503   -0.8633    0.0000 C   0  0  0  0  0  0  0  0  0  0  0  0
   32.1933   -1.1977    0.0000 C   0  0  0  0  0  0  0  0  0  0  0  0
   34.3725   -1.0153    0.0000 C   0  0  0  0  0  0  0  0  0  0  0  0
   35.0389   -1.5016    0.0000 C   0  0  0  0  0  0  0  0  0  0  0  0
   34.9506   -2.3200    0.0000 O   0  0  0  0  0  0  0  0  0  0  0  0
   35.7929   -1.1657    0.0000 O   0  0  0  0  0  0  0  0  0  0  0  0
   29.0961   -3.3557    0.0000 C   0  0  0  0  0  0  0  0  0  0  0  0
   28.4288   -2.8685    0.0000 C   0  0  0  0  0  0  0  0  0  0  0  0
   27.6755   -3.2029    0.0000 C   0  0  0  0  0  0  0  0  0  0  0  0
   29.0110   -4.1728    0.0000 C   0  0  0  0  0  0  0  0  0  0  0  0
   28.2603   -4.5099    0.0000 C   0  0  0  0  0  0  0  0  0  0  0  0
   27.5894   -4.0240    0.0000 C   0  0  0  0  0  0  0  0  0  0  0  0
   26.9199   -4.5118    0.0000 N   0  0  0  0  0  0  0  0  0  0  0  0
   27.1770   -5.2994    0.0000 C   0  0  0  0  0  0  0  0  0  0  0  0
   28.0054   -5.2981    0.0000 C   0  0  0  0  0  0  0  0  0  0  0  0
   26.1349   -4.2580    0.0000 C   0  0  0  0  0  0  0  0  0  0  0  0
   25.9623   -3.4513    0.0000 O   0  0  0  0  0  0  0  0  0  0  0  0
   25.5226   -4.8108    0.0000 N   0  0  0  0  0  0  0  0  0  0  0  0
   24.7376   -4.5570    0.0000 C   0  0  0  0  0  0  0  0  0  0  0  0
   24.5682   -3.7513    0.0000 C   0  0  0  0  0  0  0  0  0  0  0  0
   23.7841   -3.4974    0.0000 C   0  0  0  0  0  0  0  0  0  0  0  0
   23.1708   -4.0505    0.0000 C   0  0  0  0  0  0  0  0  0  0  0  0
   23.3470   -4.8609    0.0000 C   0  0  0  0  0  0  0  0  0  0  0  0
   24.1309   -5.1111    0.0000 C   0  0  0  0  0  0  0  0  0  0  0  0
  1  2  4  0  0  0  0
  2  3  4  0  0  0  0
  3  4  4  0  0  0  0
  4  5  4  0  0  0  0
  5  6  4  0  0  0  0
  6  1  4  0  0  0  0
  7  4  1  1  0  0  0
  7  8  1  0  0  0  0
  7 12  1  0  0  0  0
  8  9  1  0  0  0  0
 10  9  1  0  0  0  0
 10 11  1  0  0  0  0
 11 12  1  0  0  0  0
 10 13  1  6  0  0  0
 13 14  1  0  0  0  0
 14 15  1  0  0  0  0
 14 16  2  0  0  0  0
 17 18  4  0  0  0  0
 18 19  4  0  0  0  0
 19 22  4  0  0  0  0
 21 20  4  0  0  0  0
 20 17  4  0  0  0  0
  1 17  1  0  0  0  0
 21 22  4  0  0  0  0
 22 23  4  0  0  0  0
 23 24  4  0  0  0  0
 24 25  4  0  0  0  0
 25 21  4  0  0  0  0
 23 26  1  0  0  0  0
 26 27  2  0  0  0  0
 26 28  1  0  0  0  0
 28 29  1  0  0  0  0
 29 30  4  0  0  0  0
 30 31  4  0  0  0  0
 31 32  4  0  0  0  0
 32 33  4  0  0  0  0
 33 34  4  0  0  0  0
 34 29  4  0  0  0  0
M  END
> <From>
www.bindingDB.org

> <BindingDB Reactant_set_id>
50088728

> <Ligand InChI>
InChI=1S/C29H28N2O3/c32-28(33)18-20-6-8-21(9-7-20)22-10-12-23(13-11-22)24-14-15-27-25(19-24)16-17-31(27)29(34)30-26-4-2-1-3-5-26/h1-5,10-17,19-21H,6-9,18H2,(H,30,34)(H,32,33)/t20-,21-

> <Ligand InChI Key>
WYMQACLXNAFBRM-MEMLXQNLSA-N

> <BindingDB MonomerID>
50009391

> <BindingDB Ligand Name>
CHEMBL3233872

> <Target Name>
Sterol O-acyltransferase 2

> <Target Source Organism According to Curator or DataSource>


> <Ki (nM)>


> <IC50 (nM)>
 3000

> <Kd (nM)>


> <EC50 (nM)>


> <kon (M-1-s-1)>


> <koff (s-1)>


> <pH>


> <Temp (C)>


> <Curation/DataSource>
ChEMBL

> <Article DOI>
10.1016/j.bmcl.2014.02.028

> <BindingDB Entry DOI>
10.7270/Q2DR2X19

> <PMID>
24618302

> <PubChem AID>


> <Patent Number>


> <Authors>
Zhou, G; Ting, PC; Wishart, G; Zorn, N; Aslanian, RG; Lin, M; Smith, M; Walker, SS; Cook, J; Van Heek, M; Lachowicz, J

> <Institution>
Merck Research Laboratories

> <Link to Ligand in BindingDB>
http://www.bindingdb.org/bind/chemsearch/marvin/MolStructure.jsp?monomerid=50009391

> <Link to Target in BindingDB>
http://www.bindingdb.org/jsp/dbsearch/PrimarySearch_ki.jsp?energyterm=kJ/mole&tag=pol&polymerid=7773&target=Sterol+O-acyltransferase+2&column=ki&startPg=0&Increment=50&submit=Search

> <Link to Ligand-Target Pair in BindingDB>
http://www.bindingdb.org/jsp/dbsearch/PrimarySearch_ki.jsp?energyterm=kJ/mole&tag=r21&monomerid=50009391&enzyme=Sterol+O-acyltransferase+2&column=ki&startPg=0&Increment=50&submit=Search

> <Ligand HET ID in PDB>


> <PDB ID(s) for Ligand-Target Complex>


> <PubChem CID>
46946735

> <PubChem SID>
242057393

> <ChEBI ID of Ligand>


> <ChEMBL ID of Ligand>
CHEMBL3233872

> <DrugBank ID of Ligand>


> <IUPHAR_GRAC ID of Ligand>


> <KEGG ID of Ligand>


> <ZINC ID of Ligand>


> <Number of Protein Chains in Target (>1 implies a multichain complex)>
1

> <BindingDB Target Chain Sequence>
MEPGGARLRLQRTEGLGGERERQPCGDGNTETHRAPDLVQWTRHMEAVKAQLLEQAQGQLRELLDRAMREAIQSYPSQDKPLPPPPPGSLSRTQEPSLGKQKVFIIRKSLLDELMEVQHFRTIYHMFIAGLCVFIISTLAIDFIDEGRLLLEFDLLIFSFGQLPLALVTWVPMFLSTLLAPYQALRLWARGTWTQATGLGCALLAAHAVVLCALPVHVAVEHQLPPASRCVLVFEQVRFLMKSYSFLREAVPGTLRARRGEGIQAPSFSSYLYFLFCPTLIYRETYPRTPYVRWNYVAKNFAQALGCVLYACFILGRLCVPVFANMSREPFSTRALVLSILHATLPGIFMLLLIFFAFLHCWLNAFAEMLRFGDRMFYRDWWNSTSFSNYYRTWNVVVHDWLYSYVYQDGLRLLGARARGVAMLGVFLVSAVAHEYIFCFVLGFFYPVMLILFLVIGGMLNFMMHDQRTGPAWNVLMWTMLFLGQGIQVSLYCQEWYARRHCPLPQATFWGLVTPRSWSCHT

> <PDB ID(s) of Target Chain>


> <UniProt (SwissProt) Recommended Name of Target Chain>
Sterol O-acyltransferase 2

> <UniProt (SwissProt) Entry Name of Target Chain>
ACAT-2

> <UniProt (SwissProt) Primary ID of Target Chain>
O75908

> <UniProt (SwissProt) Secondary ID(s) of Target Chain>
F5H7W4 I6L9H9 Q4VB99 Q4VBA1 Q96TD4 Q9UNR2

> <UniProt (SwissProt) Alternative ID(s) of Target Chain>


> <UniProt (TrEMBL) Submitted Name of Target Chain>


> <UniProt (TrEMBL) Entry Name of Target Chain>


> <UniProt (TrEMBL) Primary ID of Target Chain>


> <UniProt (TrEMBL) Secondary ID(s) of Target Chain>


> <UniProt (TrEMBL) Alternative ID(s) of Target Chain>


$$$$
 
  Mrv0541 11221416472D          

 30 31  0  0  0  0            999 V2000
    7.8864    2.0030    0.0000 C   0  0  0  0  0  0  0  0  0  0  0  0
    7.8850    1.1754    0.0000 C   0  0  0  0  0  0  0  0  0  0  0  0
    8.5981    0.7624    0.0000 C   0  0  0  0  0  0  0  0  0  0  0  0
    8.5961    2.4157    0.0000 C   0  0  0  0  0  0  0  0  0  0  0  0
    9.3143    2.0070    0.0000 C   0  0  0  0  0  0  0  0  0  0  0  0
    9.3148    1.1754    0.0000 C   0  0  0  0  0  0  0  0  0  0  0  0
   10.1058    0.9188    0.0000 N   0  0  0  0  0  0  0  0  0  0  0  0
   10.5942    1.5920    0.0000 C   0  0  0  0  0  0  0  0  0  0  0  0
   10.1050    2.2644    0.0000 C   0  0  0  0  0  0  0  0  0  0  0  0
    8.5922    3.2407    0.0000 C   0  0  0  0  0  0  0  0  0  0  0  0
    7.1700    0.7638    0.0000 C   0  0  0  0  0  0  0  0  0  0  0  0
    8.5971   -0.0626    0.0000 N   0  0  0  0  0  0  0  0  0  0  0  0
    7.8822   -0.4742    0.0000 C   0  0  0  0  0  0  0  0  0  0  0  0
    7.8812   -1.2992    0.0000 C   0  0  0  0  0  0  0  0  0  0  0  0
    7.1682   -0.0609    0.0000 O   0  0  0  0  0  0  0  0  0  0  0  0
    7.8742   -2.1221    0.0000 C   0  0  0  0  0  0  0  0  0  0  0  0
    8.7062   -1.3033    0.0000 C   0  0  0  0  0  0  0  0  0  0  0  0
    7.0562   -1.2973    0.0000 C   0  0  0  0  0  0  0  0  0  0  0  0
   10.3613    0.1344    0.0000 C   0  0  0  0  0  0  0  0  0  0  0  0
   11.1683   -0.0366    0.0000 C   0  0  0  0  0  0  0  0  0  0  0  0
   11.4238   -0.8212    0.0000 C   0  0  0  0  0  0  0  0  0  0  0  0
   12.2308   -0.9922    0.0000 C   0  0  0  0  0  0  0  0  0  0  0  0
   12.4863   -1.7766    0.0000 C   0  0  0  0  0  0  0  0  0  0  0  0
   13.2933   -1.9477    0.0000 C   0  0  0  0  0  0  0  0  0  0  0  0
   13.5487   -2.7321    0.0000 C   0  0  0  0  0  0  0  0  0  0  0  0
   14.3558   -2.9031    0.0000 C   0  0  0  0  0  0  0  0  0  0  0  0
    7.1716    2.4148    0.0000 C   0  0  0  0  0  0  0  0  0  0  0  0
    6.4575    2.0018    0.0000 C   0  0  0  0  0  0  0  0  0  0  0  0
    5.7418    2.4114    0.0000 O   0  0  0  0  0  0  0  0  0  0  0  0
    6.4572    1.1746    0.0000 O   0  0  0  0  0  0  0  0  0  0  0  0
  1  2  2  0  0  0  0
 13 15  2  0  0  0  0
  5  4  2  0  0  0  0
 14 16  1  0  0  0  0
  6  7  1  0  0  0  0
 14 17  1  0  0  0  0
  7  8  1  0  0  0  0
 14 18  1  0  0  0  0
  8  9  1  0  0  0  0
  7 19  1  0  0  0  0
  9  5  1  0  0  0  0
 19 20  1  0  0  0  0
  4  1  1  0  0  0  0
 20 21  1  0  0  0  0
  4 10  1  0  0  0  0
 21 22  1  0  0  0  0
  5  6  1  0  0  0  0
 22 23  1  0  0  0  0
  2 11  1  0  0  0  0
 23 24  1  0  0  0  0
 24 25  1  0  0  0  0
  3 12  1  0  0  0  0
 25 26  1  0  0  0  0
  2  3  1  0  0  0  0
  1 27  1  0  0  0  0
 12 13  1  0  0  0  0
 27 28  1  0  0  0  0
  3  6  2  0  0  0  0
 13 14  1  0  0  0  0
 28 29  1  0  0  0  0
 28 30  2  0  0  0  0
M  END
> <From>
www.bindingDB.org

> <BindingDB Reactant_set_id>
51068070

> <Ligand InChI>
InChI=1S/C25H40N2O3/c1-7-8-9-10-11-12-14-27-15-13-19-17(2)20(16-21(28)29)18(3)22(23(19)27)26-24(30)25(4,5)6/h7-16H2,1-6H3,(H,26,30)(H,28,29)

> <Ligand InChI Key>
TXIIZHHIOHVWJD-UHFFFAOYSA-N

> <BindingDB MonomerID>
50263192

> <BindingDB Ligand Name>
CHEMBL478858::CHEMBL564483::Pactimibe::[7-(2,2-Dimethylpropanamido)-4,6-dimethyl-1-octylindolin-5-yl]acetic acid

> <Target Name>
Sterol O-acyltransferase 2

> <Target Source Organism According to Curator or DataSource>


> <Ki (nM)>


> <IC50 (nM)>
 3000

> <Kd (nM)>


> <EC50 (nM)>


> <kon (M-1-s-1)>


> <koff (s-1)>


> <pH>


> <Temp (C)>


> <Curation/DataSource>
ChEMBL

> <Article DOI>
10.1016/j.bmc.2013.04.025

> <BindingDB Entry DOI>
10.7270/Q2PV6MR1

> <PMID>
23665143

> <PubChem AID>


> <Patent Number>


> <Authors>
Eguchi, K; Fujiwara, Y; Hayashida, A; Horlad, H; Kato, H; Rotinsulu, H; Losung, F; Mangindaan, RE; de Voogd, NJ; Takeya, M; Tsukamoto, S

> <Institution>
Kumamoto University

> <Link to Ligand in BindingDB>
http://www.bindingdb.org/bind/chemsearch/marvin/MolStructure.jsp?monomerid=50263192

> <Link to Target in BindingDB>
http://www.bindingdb.org/jsp/dbsearch/PrimarySearch_ki.jsp?energyterm=kJ/mole&tag=pol&polymerid=7773&target=Sterol+O-acyltransferase+2&column=ki&startPg=0&Increment=50&submit=Search

> <Link to Ligand-Target Pair in BindingDB>
http://www.bindingdb.org/jsp/dbsearch/PrimarySearch_ki.jsp?energyterm=kJ/mole&tag=r21&monomerid=50263192&enzyme=Sterol+O-acyltransferase+2&column=ki&startPg=0&Increment=50&submit=Search

> <Ligand HET ID in PDB>


> <PDB ID(s) for Ligand-Target Complex>


> <PubChem CID>
3081927

> <PubChem SID>
104111633

> <ChEBI ID of Ligand>


> <ChEMBL ID of Ligand>
CHEMBL564483CHEMBL478858

> <DrugBank ID of Ligand>


> <IUPHAR_GRAC ID of Ligand>


> <KEGG ID of Ligand>


> <ZINC ID of Ligand>
ZINC01545445

> <Number of Protein Chains in Target (>1 implies a multichain complex)>
1

> <BindingDB Target Chain Sequence>
MEPGGARLRLQRTEGLGGERERQPCGDGNTETHRAPDLVQWTRHMEAVKAQLLEQAQGQLRELLDRAMREAIQSYPSQDKPLPPPPPGSLSRTQEPSLGKQKVFIIRKSLLDELMEVQHFRTIYHMFIAGLCVFIISTLAIDFIDEGRLLLEFDLLIFSFGQLPLALVTWVPMFLSTLLAPYQALRLWARGTWTQATGLGCALLAAHAVVLCALPVHVAVEHQLPPASRCVLVFEQVRFLMKSYSFLREAVPGTLRARRGEGIQAPSFSSYLYFLFCPTLIYRETYPRTPYVRWNYVAKNFAQALGCVLYACFILGRLCVPVFANMSREPFSTRALVLSILHATLPGIFMLLLIFFAFLHCWLNAFAEMLRFGDRMFYRDWWNSTSFSNYYRTWNVVVHDWLYSYVYQDGLRLLGARARGVAMLGVFLVSAVAHEYIFCFVLGFFYPVMLILFLVIGGMLNFMMHDQRTGPAWNVLMWTMLFLGQGIQVSLYCQEWYARRHCPLPQATFWGLVTPRSWSCHT

> <PDB ID(s) of Target Chain>


> <UniProt (SwissProt) Recommended Name of Target Chain>
Sterol O-acyltransferase 2

> <UniProt (SwissProt) Entry Name of Target Chain>
ACAT-2

> <UniProt (SwissProt) Primary ID of Target Chain>
O75908

> <UniProt (SwissProt) Secondary ID(s) of Target Chain>
F5H7W4 I6L9H9 Q4VB99 Q4VBA1 Q96TD4 Q9UNR2

> <UniProt (SwissProt) Alternative ID(s) of Target Chain>


> <UniProt (TrEMBL) Submitted Name of Target Chain>


> <UniProt (TrEMBL) Entry Name of Target Chain>


> <UniProt (TrEMBL) Primary ID of Target Chain>


> <UniProt (TrEMBL) Secondary ID(s) of Target Chain>


> <UniProt (TrEMBL) Alternative ID(s) of Target Chain>


$$$$

  Mrv0541 04241520582D          

 34 38  0  0  0  0            999 V2000
   29.8488   -3.0203    0.0000 C   0  0  0  0  0  0  0  0  0  0  0  0
   30.5165   -3.5076    0.0000 C   0  0  0  0  0  0  0  0  0  0  0  0
   31.2696   -3.1728    0.0000 C   0  0  0  0  0  0  0  0  0  0  0  0
   31.3567   -2.3516    0.0000 C   0  0  0  0  0  0  0  0  0  0  0  0
   30.6843   -1.8673    0.0000 C   0  0  0  0  0  0  0  0  0  0  0  0
   29.9338   -2.2049    0.0000 C   0  0  0  0  0  0  0  0  0  0  0  0
   32.1098   -2.0148    0.0000 C   0  0  2  0  0  0  0  0  0  0  0  0
   32.7783   -2.5033    0.0000 C   0  0  0  0  0  0  0  0  0  0  0  0
   33.5290   -2.1697    0.0000 C   0  0  0  0  0  0  0  0  0  0  0  0
   33.6182   -1.3493    0.0000 C   0  0  2  0  0  0  0  0  0  0  0  0
   32.9503   -0.8633    0.0000 C   0  0  0  0  0  0  0  0  0  0  0  0
   32.1933   -1.1977    0.0000 C   0  0  0  0  0  0  0  0  0  0  0  0
   34.3725   -1.0153    0.0000 C   0  0  0  0  0  0  0  0  0  0  0  0
   35.0389   -1.5016    0.0000 C   0  0  0  0  0  0  0  0  0  0  0  0
   34.9506   -2.3200    0.0000 O   0  0  0  0  0  0  0  0  0  0  0  0
   35.7929   -1.1657    0.0000 O   0  0  0  0  0  0  0  0  0  0  0  0
   29.0961   -3.3557    0.0000 C   0  0  0  0  0  0  0  0  0  0  0  0
   28.4288   -2.8685    0.0000 C   0  0  0  0  0  0  0  0  0  0  0  0
   27.6755   -3.2029    0.0000 C   0  0  0  0  0  0  0  0  0  0  0  0
   29.0110   -4.1728    0.0000 C   0  0  0  0  0  0  0  0  0  0  0  0
   28.2603   -4.5099    0.0000 C   0  0  0  0  0  0  0  0  0  0  0  0
   27.5894   -4.0240    0.0000 C   0  0  0  0  0  0  0  0  0  0  0  0
   26.9199   -4.5118    0.0000 N   0  0  0  0  0  0  0  0  0  0  0  0
   27.1770   -5.2994    0.0000 C   0  0  0  0  0  0  0  0  0  0  0  0
   28.0054   -5.2981    0.0000 C   0  0  0  0  0  0  0  0  0  0  0  0
   26.1349   -4.2580    0.0000 C   0  0  0  0  0  0  0  0  0  0  0  0
   25.9623   -3.4513    0.0000 O   0  0  0  0  0  0  0  0  0  0  0  0
   25.5226   -4.8108    0.0000 N   0  0  0  0  0  0  0  0  0  0  0  0
   24.7376   -4.5570    0.0000 C   0  0  0  0  0  0  0  0  0  0  0  0
   24.5682   -3.7513    0.0000 C   0  0  0  0  0  0  0  0  0  0  0  0
   23.7841   -3.4974    0.0000 C   0  0  0  0  0  0  0  0  0  0  0  0
   23.1708   -4.0505    0.0000 C   0  0  0  0  0  0  0  0  0  0  0  0
   23.3470   -4.8609    0.0000 C   0  0  0  0  0  0  0  0  0  0  0  0
   24.1309   -5.1111    0.0000 C   0  0  0  0  0  0  0  0  0  0  0  0
  1  2  4  0  0  0  0
  2  3  4  0  0  0  0
  3  4  4  0  0  0  0
  4  5  4  0  0  0  0
  5  6  4  0  0  0  0
  6  1  4  0  0  0  0
  7  4  1  1  0  0  0
  7  8  1  0  0  0  0
  7 12  1  0  0  0  0
  8  9  1  0  0  0  0
 10  9  1  0  0  0  0
 10 11  1  0  0  0  0
 11 12  1  0  0  0  0
 10 13  1  6  0  0  0
 13 14  1  0  0  0  0
 14 15  1  0  0  0  0
 14 16  2  0  0  0  0
 17 18  4  0  0  0  0
 18 19  4  0  0  0  0
 19 22  4  0  0  0  0
 21 20  4  0  0  0  0
 20 17  4  0  0  0  0
  1 17  1  0  0  0  0
 21 22  4  0  0  0  0
 22 23  4  0  0  0  0
 23 24  4  0  0  0  0
 24 25  4  0  0  0  0
 25 21  4  0  0  0  0
 23 26  1  0  0  0  0
 26 27  2  0  0  0  0
 26 28  1  0  0  0  0
 28 29  1  0  0  0  0
 29 30  4  0  0  0  0
 30 31  4  0  0  0  0
 31 32  4  0  0  0  0
 32 33  4  0  0  0  0
 33 34  4  0  0  0  0
 34 29  4  0  0  0  0
M  END
> <From>
www.bindingDB.org

> <BindingDB Reactant_set_id>
50106529

> <Ligand InChI>
InChI=1S/C29H28N2O3/c32-28(33)18-20-6-8-21(9-7-20)22-10-12-23(13-11-22)24-14-15-27-25(19-24)16-17-31(27)29(34)30-26-4-2-1-3-5-26/h1-5,10-17,19-21H,6-9,18H2,(H,30,34)(H,32,33)/t20-,21-

> <Ligand InChI Key>
WYMQACLXNAFBRM-MEMLXQNLSA-N

> <BindingDB MonomerID>
50009391

> <BindingDB Ligand Name>
CHEMBL3233872

> <Target Name>
Sterol O-acyltransferase 2

> <Target Source Organism According to Curator or DataSource>


> <Ki (nM)>


> <IC50 (nM)>
 3000

> <Kd (nM)>


> <EC50 (nM)>


> <kon (M-1-s-1)>


> <koff (s-1)>


> <pH>


> <Temp (C)>


> <Curation/DataSource>
ChEMBL

> <Article DOI>
10.1021/ml400527n

> <BindingDB Entry DOI>
10.7270/Q2KS6T3C

> <PMID>
24900877

> <PubChem AID>


> <Patent Number>


> <Authors>
Zhou, G; Zorn, N; Ting, P; Aslanian, R; Lin, M; Cook, J; Lachowicz, J; Lin, A; Smith, M; Hwa, J; van Heek, M; Walker, S

> <Institution>
Merck Research Laboratories

> <Link to Ligand in BindingDB>
http://www.bindingdb.org/bind/chemsearch/marvin/MolStructure.jsp?monomerid=50009391

> <Link to Target in BindingDB>
http://www.bindingdb.org/jsp/dbsearch/PrimarySearch_ki.jsp?energyterm=kJ/mole&tag=pol&polymerid=7773&target=Sterol+O-acyltransferase+2&column=ki&startPg=0&Increment=50&submit=Search

> <Link to Ligand-Target Pair in BindingDB>
http://www.bindingdb.org/jsp/dbsearch/PrimarySearch_ki.jsp?energyterm=kJ/mole&tag=r21&monomerid=50009391&enzyme=Sterol+O-acyltransferase+2&column=ki&startPg=0&Increment=50&submit=Search

> <Ligand HET ID in PDB>


> <PDB ID(s) for Ligand-Target Complex>


> <PubChem CID>
46946735

> <PubChem SID>
242057393

> <ChEBI ID of Ligand>


> <ChEMBL ID of Ligand>
CHEMBL3233872

> <DrugBank ID of Ligand>


> <IUPHAR_GRAC ID of Ligand>


> <KEGG ID of Ligand>


> <ZINC ID of Ligand>


> <Number of Protein Chains in Target (>1 implies a multichain complex)>
1

> <BindingDB Target Chain Sequence>
MEPGGARLRLQRTEGLGGERERQPCGDGNTETHRAPDLVQWTRHMEAVKAQLLEQAQGQLRELLDRAMREAIQSYPSQDKPLPPPPPGSLSRTQEPSLGKQKVFIIRKSLLDELMEVQHFRTIYHMFIAGLCVFIISTLAIDFIDEGRLLLEFDLLIFSFGQLPLALVTWVPMFLSTLLAPYQALRLWARGTWTQATGLGCALLAAHAVVLCALPVHVAVEHQLPPASRCVLVFEQVRFLMKSYSFLREAVPGTLRARRGEGIQAPSFSSYLYFLFCPTLIYRETYPRTPYVRWNYVAKNFAQALGCVLYACFILGRLCVPVFANMSREPFSTRALVLSILHATLPGIFMLLLIFFAFLHCWLNAFAEMLRFGDRMFYRDWWNSTSFSNYYRTWNVVVHDWLYSYVYQDGLRLLGARARGVAMLGVFLVSAVAHEYIFCFVLGFFYPVMLILFLVIGGMLNFMMHDQRTGPAWNVLMWTMLFLGQGIQVSLYCQEWYARRHCPLPQATFWGLVTPRSWSCHT

> <PDB ID(s) of Target Chain>


> <UniProt (SwissProt) Recommended Name of Target Chain>
Sterol O-acyltransferase 2

> <UniProt (SwissProt) Entry Name of Target Chain>
ACAT-2

> <UniProt (SwissProt) Primary ID of Target Chain>
O75908

> <UniProt (SwissProt) Secondary ID(s) of Target Chain>
F5H7W4 I6L9H9 Q4VB99 Q4VBA1 Q96TD4 Q9UNR2

> <UniProt (SwissProt) Alternative ID(s) of Target Chain>


> <UniProt (TrEMBL) Submitted Name of Target Chain>


> <UniProt (TrEMBL) Entry Name of Target Chain>


> <UniProt (TrEMBL) Primary ID of Target Chain>


> <UniProt (TrEMBL) Secondary ID(s) of Target Chain>


> <UniProt (TrEMBL) Alternative ID(s) of Target Chain>


$$$$

  SciTegic12211713412D

 27 30  0  0  0  0            999 V2000
   18.7665   -4.1396    0.0000 C   0  0  2  0  0  0
   19.5548   -3.9250    0.0000 C   0  0
   19.7619   -3.1394    0.0000 C   0  0
   19.1840   -2.5628    0.0000 C   0  0
   18.3957   -2.7774    0.0000 C   0  0  2  0  0  0
   18.1853   -3.5686    0.0000 O   0  0
   16.5735   -4.3996    0.0000 C   0  0
   16.5724   -5.2191    0.0000 C   0  0
   17.2804   -5.6281    0.0000 C   0  0
   17.2786   -3.9907    0.0000 C   0  0
   17.9873   -4.3960    0.0000 C   0  0
   17.9875   -5.2192    0.0000 C   0  0
   18.7705   -5.4733    0.0000 N   0  0
   19.2542   -4.8072    0.0000 C   0  0
   20.0714   -4.8069    0.0000 O   0  0
   17.8161   -2.2013    0.0000 C   0  0
   17.0274   -2.4152    0.0000 C   0  0
   16.4478   -1.8391    0.0000 C   0  0
   20.5507   -2.9258    0.0000 N   0  0
   21.1301   -3.5021    0.0000 O   0  0
   21.9189   -3.2885    0.0000 C   0  0
   22.4982   -3.8649    0.0000 C   0  0
   22.2856   -4.6532    0.0000 C   0  0
   22.8642   -5.2292    0.0000 C   0  0
   23.6540   -5.0158    0.0000 C   0  0
   23.8619   -4.2212    0.0000 C   0  0
   23.2818   -3.6486    0.0000 C   0  0
  1  2  1  0
  1  6  1  0
  2  3  1  0
  3  4  1  0
  4  5  1  0
  5  6  1  0
  7  8  2  0
  8  9  1  0
  9 12  2  0
 11 10  2  0
 10  7  1  0
 11 12  1  0
 12 13  1  0
 13 14  1  0
 14  1  1  0
  1 11  1  1
 14 15  2  0
  5 16  1  6
 16 17  1  0
 17 18  1  0
  3 19  2  3
 19 20  1  0
 20 21  1  0
 21 22  1  0
 22 23  2  0
 23 24  1  0
 24 25  2  0
 25 26  1  0
 26 27  2  0
 27 22  1  0
M  END
> <From>
www.bindingDB.org

> <BindingDB Reactant_set_id>
50533661

> <Ligand InChI>
InChI=1S/C22H24N2O3/c1-2-8-18-13-17(24-26-15-16-9-4-3-5-10-16)14-22(27-18)19-11-6-7-12-20(19)23-21(22)25/h3-7,9-12,18H,2,8,13-15H2,1H3,(H,23,25)/t18-,22+/m1/s1

> <Ligand InChI Key>
PVYMEAANGXOWGU-GCJKJVERSA-N

> <BindingDB MonomerID>
50204547

> <BindingDB Ligand Name>
CHEMBL3923673

> <Target Name>
Sterol O-acyltransferase 2

> <Target Source Organism According to Curator or DataSource>


> <Ki (nM)>


> <IC50 (nM)>
 3000

> <Kd (nM)>


> <EC50 (nM)>


> <kon (M-1-s-1)>


> <koff (s-1)>


> <pH>


> <Temp (C)>


> <Curation/DataSource>
ChEMBL

> <Article DOI>
10.1016/j.bmcl.2016.11.008

> <BindingDB Entry DOI>
10.7270/Q2D220KD

> <PMID>
27876317

> <PubChem AID>


> <Patent Number>


> <Authors>
Kobayashi, K; Ohshiro, T; Tomoda, H; Yin, F; Cui, HL; Chouthaiwale, PV; Tanaka, F

> <Institution>
Kitasato University

> <Link to Ligand in BindingDB>
http://www.bindingdb.org/bind/chemsearch/marvin/MolStructure.jsp?monomerid=50204547

> <Link to Target in BindingDB>
http://www.bindingdb.org/jsp/dbsearch/PrimarySearch_ki.jsp?energyterm=kJ/mole&tag=pol&polymerid=50007205&target=Sterol+O-acyltransferase+2&column=ki&startPg=0&Increment=50&submit=Search

> <Link to Ligand-Target Pair in BindingDB>
http://www.bindingdb.org/jsp/dbsearch/PrimarySearch_ki.jsp?energyterm=kJ/mole&tag=r21&monomerid=50204547&enzyme=Sterol+O-acyltransferase+2&column=ki&startPg=0&Increment=50&submit=Search

> <Ligand HET ID in PDB>


> <PDB ID(s) for Ligand-Target Complex>


> <PubChem CID>
134141436

> <PubChem SID>
375980537

> <ChEBI ID of Ligand>


> <ChEMBL ID of Ligand>
CHEMBL3923673

> <DrugBank ID of Ligand>


> <IUPHAR_GRAC ID of Ligand>


> <KEGG ID of Ligand>


> <ZINC ID of Ligand>


> <Number of Protein Chains in Target (>1 implies a multichain complex)>
1

> <BindingDB Target Chain Sequence>
MEPGGARLRLQRTEGPGGEREHQPCRDGNTETHRAPDLVKWTRHMEAVKAQLLEQAQGQLRELLDRAMWEAIQSYPSQDKPPPLPPPDSLSRTQEPSLGKQKVFIIRKSLLDELMEVQHFRTIYHMFIAGLCVFIISTLAIDFIDEGRLLLEFDLLIFSFGQLPLALVTWVPMFLSTLLAPYQALRLWARPGARGTWTLGAGLGCALLAAHALVLCALPVHVAVEHQLPPASRCVLVFEQVRFLMKSYSFLREAVPGTLRARRGEGIQAPSFSSYLYFLFCPTLIYRETYPRTPYIRWNYVAKNFAQALGCVLYACFILGRLCVPVFANMSREPFSTRALVLSILHATLPGIFMLLLIFFAFLHCWLNAFAEMLRFGDRMFYRDWWNSTSFSNYYRTWNVVVHDWLYSYVYQDGLWLLGAQARGVAMLGVFLVSAVAHEYIFCFVLGFFYPVMLILFLVIGGMLNFMMHDQHTGPAWNVLMWTMLFLGQGIQVSLYCQEWYARRHCPLPQTTFWGLVTPRSWSCHT

> <PDB ID(s) of Target Chain>


> <UniProt (SwissProt) Recommended Name of Target Chain>
Sterol O-acyltransferase 2

> <UniProt (SwissProt) Entry Name of Target Chain>
ACAT-2

> <UniProt (SwissProt) Primary ID of Target Chain>
O77759

> <UniProt (SwissProt) Secondary ID(s) of Target Chain>


> <UniProt (SwissProt) Alternative ID(s) of Target Chain>


> <UniProt (TrEMBL) Submitted Name of Target Chain>


> <UniProt (TrEMBL) Entry Name of Target Chain>


> <UniProt (TrEMBL) Primary ID of Target Chain>


> <UniProt (TrEMBL) Secondary ID(s) of Target Chain>


> <UniProt (TrEMBL) Alternative ID(s) of Target Chain>


$$$$

  Mrv0541 11241417312D          

 53 58  0  0  0  0            999 V2000
   14.2462  -17.7046    0.0000 C   0  0  0  0  0  0  0  0  0  0  0  0
   13.8378  -16.9920    0.0000 C   0  0  1  0  0  0  0  0  0  0  0  0
   13.4250  -17.7020    0.0000 C   0  0  0  0  0  0  0  0  0  0  0  0
   13.1295  -15.7587    0.0000 C   0  0  0  0  0  0  0  0  0  0  0  0
   13.1295  -16.5838    0.0000 C   0  0  2  0  0  0  0  0  0  0  0  0
   13.8415  -15.3421    0.0000 C   0  0  0  0  0  0  0  0  0  0  0  0
   14.5536  -15.7587    0.0000 C   0  0  1  0  0  0  0  0  0  0  0  0
   14.5546  -16.5838    0.0000 C   0  0  1  0  0  0  0  0  0  0  0  0
   15.2657  -16.9930    0.0000 C   0  0  0  0  0  0  0  0  0  0  0  0
   15.9802  -16.5819    0.0000 C   0  0  1  0  0  0  0  0  0  0  0  0
   15.2635  -15.3430    0.0000 C   0  0  2  0  0  0  0  0  0  0  0  0
   15.9811  -15.7575    0.0000 C   0  0  2  0  0  0  0  0  0  0  0  0
   16.6949  -15.3457    0.0000 O   0  0  0  0  0  0  0  0  0  0  0  0
   15.2598  -14.5166    0.0000 C   0  0  2  0  0  0  0  0  0  0  0  0
   15.9798  -14.1031    0.0000 C   0  0  0  0  0  0  0  0  0  0  0  0
   16.7025  -14.5167    0.0000 C   0  0  0  0  0  0  0  0  0  0  0  0
   17.4181  -14.1001    0.0000 C   0  0  0  0  0  0  0  0  0  0  0  0
   17.4173  -13.2681    0.0000 C   0  0  0  0  0  0  0  0  0  0  0  0
   16.6947  -12.8544    0.0000 O   0  0  0  0  0  0  0  0  0  0  0  0
   15.9729  -13.2727    0.0000 C   0  0  0  0  0  0  0  0  0  0  0  0
   18.1299  -12.8565    0.0000 C   0  0  0  0  0  0  0  0  0  0  0  0
   18.8457  -13.2690    0.0000 C   0  0  0  0  0  0  0  0  0  0  0  0
   19.5587  -12.8556    0.0000 N   0  0  0  0  0  0  0  0  0  0  0  0
   19.5573  -12.0296    0.0000 C   0  0  0  0  0  0  0  0  0  0  0  0
   18.8368  -11.6232    0.0000 C   0  0  0  0  0  0  0  0  0  0  0  0
   18.1267  -12.0348    0.0000 C   0  0  0  0  0  0  0  0  0  0  0  0
   16.6942  -16.9954    0.0000 O   0  0  0  0  0  0  0  0  0  0  0  0
   17.4092  -16.5838    0.0000 C   0  0  0  0  0  0  0  0  0  0  0  0
   18.1232  -16.9972    0.0000 C   0  0  0  0  0  0  0  0  0  0  0  0
   17.4103  -15.7587    0.0000 O   0  0  0  0  0  0  0  0  0  0  0  0
   15.2563  -12.8639    0.0000 O   0  0  0  0  0  0  0  0  0  0  0  0
   14.5448  -14.1049    0.0000 O   0  0  0  0  0  0  0  0  0  0  0  0
   14.5462  -14.9337    0.0000 C   0  0  0  0  0  0  0  0  0  0  0  0
   15.9754  -14.9296    0.0000 C   0  0  0  0  0  0  0  0  0  0  0  0
   12.4156  -16.9973    0.0000 O   0  0  0  0  0  0  0  0  0  0  0  0
   11.7005  -16.5858    0.0000 C   0  0  0  0  0  0  0  0  0  0  0  0
   10.9889  -16.9993    0.0000 C   0  0  0  0  0  0  0  0  0  0  0  0
   11.6993  -15.7608    0.0000 O   0  0  0  0  0  0  0  0  0  0  0  0
   18.1174  -17.8223    0.0000 C   0  0  0  0  0  0  0  0  0  0  0  0
   18.8306  -18.2356    0.0000 C   0  0  0  0  0  0  0  0  0  0  0  0
   19.5466  -17.8240    0.0000 C   0  0  0  0  0  0  0  0  0  0  0  0
   19.5450  -16.9948    0.0000 C   0  0  0  0  0  0  0  0  0  0  0  0
   18.8313  -16.5851    0.0000 C   0  0  0  0  0  0  0  0  0  0  0  0
   20.2605  -18.2327    0.0000 C   0  0  0  0  0  0  0  0  0  0  0  0
   20.9749  -18.6451    0.0000 N   0  0  0  0  0  0  0  0  0  0  0  0
   12.6000  -17.6993    0.0000 O   0  0  0  0  0  0  0  0  0  0  0  0
   13.8352  -18.4178    0.0000 N   0  0  0  0  0  0  0  0  0  0  0  0
   13.4203  -19.1309    0.0000 C   0  0  0  0  0  0  0  0  0  0  0  0
   12.5953  -19.1283    0.0000 C   0  0  0  0  0  0  0  0  0  0  0  0
   12.1806  -19.8415    0.0000 O   0  0  0  0  0  0  0  0  0  0  0  0
   12.1851  -18.4125    0.0000 O   0  0  0  0  0  0  0  0  0  0  0  0
   11.3601  -18.4099    0.0000 C   0  0  0  0  0  0  0  0  0  0  0  0
   10.9454  -19.1231    0.0000 C   0  0  0  0  0  0  0  0  0  0  0  0
  2  1  1  1  0  0  0
  2  3  1  6  0  0  0
  5  4  1  0  0  0  0
  4  6  1  0  0  0  0
  2  5  1  0  0  0  0
  8  2  1  0  0  0  0
  7  6  1  0  0  0  0
  7  8  1  0  0  0  0
 11  7  1  1  0  0  0
  8  9  1  1  0  0  0
 10  9  1  0  0  0  0
 12 10  1  0  0  0  0
 11 12  1  0  0  0  0
 11 14  1  0  0  0  0
 12 13  1  0  0  0  0
 13 16  1  0  0  0  0
 14 15  1  0  0  0  0
 15 16  2  0  0  0  0
 15 20  1  0  0  0  0
 16 17  1  0  0  0  0
 17 18  2  0  0  0  0
 18 19  1  0  0  0  0
 19 20  1  0  0  0  0
 21 22  2  0  0  0  0
 22 23  1  0  0  0  0
 23 24  2  0  0  0  0
 24 25  1  0  0  0  0
 25 26  2  0  0  0  0
 26 21  1  0  0  0  0
 18 21  1  0  0  0  0
 10 27  1  1  0  0  0
 27 28  1  0  0  0  0
 28 29  1  0  0  0  0
 28 30  2  0  0  0  0
 20 31  2  0  0  0  0
 14 32  1  1  0  0  0
  7 33  1  1  0  0  0
 12 34  1  1  0  0  0
  5 35  1  1  0  0  0
 35 36  1  0  0  0  0
 36 37  1  0  0  0  0
 36 38  2  0  0  0  0
 29 39  2  0  0  0  0
 39 40  1  0  0  0  0
 40 41  2  0  0  0  0
 41 42  1  0  0  0  0
 42 43  2  0  0  0  0
 43 29  1  0  0  0  0
 44 45  3  0  0  0  0
 41 44  1  0  0  0  0
  3 46  2  0  0  0  0
  3 47  1  0  0  0  0
 47 48  1  0  0  0  0
 48 49  1  0  0  0  0
 49 50  2  0  0  0  0
 49 51  1  0  0  0  0
 51 52  1  0  0  0  0
 52 53  1  0  0  0  0
M  END
> <From>
www.bindingDB.org

> <BindingDB Reactant_set_id>
51061834

> <Ligand InChI>
InChI=1S/C39H41N3O11/c1-6-49-30(44)20-42-36(48)38(4)27-17-29(52-34(46)23-11-9-22(18-40)10-12-23)39(5)33(37(27,3)14-13-28(38)50-21(2)43)32(45)31-26(53-39)16-25(51-35(31)47)24-8-7-15-41-19-24/h7-12,15-16,19,27-29,32-33,45H,6,13-14,17,20H2,1-5H3,(H,42,48)/t27-,28+,29+,32+,33-,37+,38+,39-/m1/s1

> <Ligand InChI Key>
ZHFUYHOZGXWEDP-RGVPOABSSA-N

> <BindingDB MonomerID>
50433222

> <BindingDB Ligand Name>
CHEMBL2375601

> <Target Name>
Sterol O-acyltransferase 2

> <Target Source Organism According to Curator or DataSource>


> <Ki (nM)>


> <IC50 (nM)>
 3090

> <Kd (nM)>


> <EC50 (nM)>


> <kon (M-1-s-1)>


> <koff (s-1)>


> <pH>


> <Temp (C)>


> <Curation/DataSource>
ChEMBL

> <Article DOI>
10.1016/j.bmcl.2013.02.088

> <BindingDB Entry DOI>
10.7270/Q20866P3

> <PMID>
23535327

> <PubChem AID>


> <Patent Number>


> <Authors>
Ohtawa, M; Yamazaki, H; Matsuda, D; Ohshiro, T; Rudel, LL; Omura, S; Tomoda, H; Nagamitsu, T

> <Institution>
Kitasato University

> <Link to Ligand in BindingDB>
http://www.bindingdb.org/bind/chemsearch/marvin/MolStructure.jsp?monomerid=50433222

> <Link to Target in BindingDB>
http://www.bindingdb.org/jsp/dbsearch/PrimarySearch_ki.jsp?energyterm=kJ/mole&tag=pol&polymerid=7773&target=Sterol+O-acyltransferase+2&column=ki&startPg=0&Increment=50&submit=Search

> <Link to Ligand-Target Pair in BindingDB>
http://www.bindingdb.org/jsp/dbsearch/PrimarySearch_ki.jsp?energyterm=kJ/mole&tag=r21&monomerid=50433222&enzyme=Sterol+O-acyltransferase+2&column=ki&startPg=0&Increment=50&submit=Search

> <Ligand HET ID in PDB>


> <PDB ID(s) for Ligand-Target Complex>


> <PubChem CID>
71602909

> <PubChem SID>
175445539

> <ChEBI ID of Ligand>


> <ChEMBL ID of Ligand>
CHEMBL2375601

> <DrugBank ID of Ligand>


> <IUPHAR_GRAC ID of Ligand>


> <KEGG ID of Ligand>


> <ZINC ID of Ligand>
ZINC96258639

> <Number of Protein Chains in Target (>1 implies a multichain complex)>
1

> <BindingDB Target Chain Sequence>
MEPGGARLRLQRTEGLGGERERQPCGDGNTETHRAPDLVQWTRHMEAVKAQLLEQAQGQLRELLDRAMREAIQSYPSQDKPLPPPPPGSLSRTQEPSLGKQKVFIIRKSLLDELMEVQHFRTIYHMFIAGLCVFIISTLAIDFIDEGRLLLEFDLLIFSFGQLPLALVTWVPMFLSTLLAPYQALRLWARGTWTQATGLGCALLAAHAVVLCALPVHVAVEHQLPPASRCVLVFEQVRFLMKSYSFLREAVPGTLRARRGEGIQAPSFSSYLYFLFCPTLIYRETYPRTPYVRWNYVAKNFAQALGCVLYACFILGRLCVPVFANMSREPFSTRALVLSILHATLPGIFMLLLIFFAFLHCWLNAFAEMLRFGDRMFYRDWWNSTSFSNYYRTWNVVVHDWLYSYVYQDGLRLLGARARGVAMLGVFLVSAVAHEYIFCFVLGFFYPVMLILFLVIGGMLNFMMHDQRTGPAWNVLMWTMLFLGQGIQVSLYCQEWYARRHCPLPQATFWGLVTPRSWSCHT

> <PDB ID(s) of Target Chain>


> <UniProt (SwissProt) Recommended Name of Target Chain>
Sterol O-acyltransferase 2

> <UniProt (SwissProt) Entry Name of Target Chain>
ACAT-2

> <UniProt (SwissProt) Primary ID of Target Chain>
O75908

> <UniProt (SwissProt) Secondary ID(s) of Target Chain>
F5H7W4 I6L9H9 Q4VB99 Q4VBA1 Q96TD4 Q9UNR2

> <UniProt (SwissProt) Alternative ID(s) of Target Chain>


> <UniProt (TrEMBL) Submitted Name of Target Chain>


> <UniProt (TrEMBL) Entry Name of Target Chain>


> <UniProt (TrEMBL) Primary ID of Target Chain>


> <UniProt (TrEMBL) Secondary ID(s) of Target Chain>


> <UniProt (TrEMBL) Alternative ID(s) of Target Chain>


$$$$

  Mrv0541 11231422322D          

 35 36  0  0  0  0            999 V2000
   -2.6486  -12.2948    0.0000 C   0  0  2  0  0  0  0  0  0  0  0  0
   -1.6669  -12.3335    0.0000 C   0  0  0  0  0  0  0  0  0  0  0  0
   -2.8981  -13.0772    0.0000 O   0  0  0  0  0  0  0  0  0  0  0  0
   -1.4647  -13.1367    0.0000 C   0  0  0  0  0  0  0  0  0  0  0  0
   -3.6781  -13.3423    0.0000 C   0  0  0  0  0  0  0  0  0  0  0  0
   -0.6940  -13.3773    0.0000 N   0  0  0  0  0  0  0  0  0  0  0  0
   -3.6932  -14.1518    0.0000 C   0  0  2  0  0  0  0  0  0  0  0  0
   -0.6689  -14.2779    0.0000 C   0  0  2  0  0  0  0  0  0  0  0  0
   -2.9239  -14.4063    0.0000 N   0  0  0  0  0  0  0  0  0  0  0  0
   -1.5351  -14.4297    0.0000 C   0  0  0  0  0  0  0  0  0  0  0  0
   -2.8832  -15.1994    0.0000 C   0  0  0  0  0  0  0  0  0  0  0  0
   -1.5295  -15.2214    0.0000 N   0  0  0  0  0  0  0  0  0  0  0  0
   -2.1792  -15.4734    0.0000 C   0  0  1  0  0  0  0  0  0  0  0  0
    0.0843  -14.7608    0.0000 C   0  0  0  0  0  0  0  0  0  0  0  0
    0.8816  -14.3546    0.0000 C   0  0  0  0  0  0  0  0  0  0  0  0
    1.6303  -14.8462    0.0000 C   0  0  0  0  0  0  0  0  0  0  0  0
    2.4297  -14.4385    0.0000 C   0  0  0  0  0  0  0  0  0  0  0  0
    2.4800  -13.5473    0.0000 C   0  0  0  0  0  0  0  0  0  0  0  0
    1.7169  -13.0530    0.0000 C   0  0  0  0  0  0  0  0  0  0  0  0
    0.9244  -13.4600    0.0000 C   0  0  0  0  0  0  0  0  0  0  0  0
   -2.0565  -13.7047    0.0000 O   0  0  0  0  0  0  0  0  0  0  0  0
   -3.0559  -11.5827    0.0000 C   0  0  2  0  0  0  0  0  0  0  0  0
   -2.6355  -10.8746    0.0000 C   0  0  0  0  0  0  0  0  0  0  0  0
   -3.8707  -11.5733    0.0000 C   0  0  0  0  0  0  0  0  0  0  0  0
   -1.8106  -10.8851    0.0000 C   0  0  0  0  0  0  0  0  0  0  0  0
   -1.3926  -10.1813    0.0000 C   0  0  0  0  0  0  0  0  0  0  0  0
   -0.5719  -10.1876    0.0000 C   0  0  0  0  0  0  0  0  0  0  0  0
   -4.3375  -12.8576    0.0000 O   0  0  0  0  0  0  0  0  0  0  0  0
   -3.5495  -15.6721    0.0000 O   0  0  0  0  0  0  0  0  0  0  0  0
   -2.1813  -16.2997    0.0000 C   0  0  0  0  0  0  0  0  0  0  0  0
   -2.3283  -14.2009    0.0000 O   0  0  0  0  0  0  0  0  0  0  0  0
   -4.3593  -14.6278    0.0000 C   0  0  2  0  0  0  0  0  0  0  0  0
   -5.1085  -14.2817    0.0000 C   0  0  0  0  0  0  0  0  0  0  0  0
   -5.1810  -13.4614    0.0000 C   0  0  0  0  0  0  0  0  0  0  0  0
   -4.2857  -15.4450    0.0000 C   0  0  0  0  0  0  0  0  0  0  0  0
  1  3  1  0  0  0  0
  2  4  1  0  0  0  0
  3  5  1  0  0  0  0
  4  6  1  0  0  0  0
  7  5  1  0  0  0  0
  8  6  1  0  0  0  0
  7  9  1  0  0  0  0
  8 10  1  0  0  0  0
  9 11  1  0  0  0  0
 10 12  1  0  0  0  0
 13 11  1  0  0  0  0
 13 12  1  0  0  0  0
  1  2  1  0  0  0  0
  8 14  1  1  0  0  0
 14 15  1  0  0  0  0
 15 16  2  0  0  0  0
 16 17  1  0  0  0  0
 17 18  2  0  0  0  0
 18 19  1  0  0  0  0
 19 20  2  0  0  0  0
 20 15  1  0  0  0  0
  4 21  2  0  0  0  0
  1 22  1  6  0  0  0
 22 23  1  0  0  0  0
 22 24  1  1  0  0  0
 23 25  1  0  0  0  0
 25 26  1  0  0  0  0
 26 27  1  0  0  0  0
  5 28  2  0  0  0  0
 11 29  2  0  0  0  0
 13 30  1  1  0  0  0
 10 31  2  0  0  0  0
  7 32  1  6  0  0  0
 32 33  1  0  0  0  0
 33 34  1  0  0  0  0
 32 35  1  1  0  0  0
M  END
> <From>
www.bindingDB.org

> <BindingDB Reactant_set_id>
51125431

> <Ligand InChI>
InChI=1S/C27H41N3O5/c1-6-8-12-18(4)22-16-23(31)29-21(15-20-13-10-9-11-14-20)26(33)28-19(5)25(32)30-24(17(3)7-2)27(34)35-22/h9-11,13-14,17-19,21-22,24H,6-8,12,15-16H2,1-5H3,(H,28,33)(H,29,31)(H,30,32)/t17-,18-,19-,21-,22-,24+/m0/s1

> <Ligand InChI Key>
VEELKRGSLCNVAR-QVZGIDAOSA-N

> <BindingDB MonomerID>
50360305

> <BindingDB Ligand Name>
CHEMBL409855::US9149492, Beauveriolide III

> <Target Name>
Sterol O-acyltransferase 2

> <Target Source Organism According to Curator or DataSource>


> <Ki (nM)>


> <IC50 (nM)>
 3100

> <Kd (nM)>


> <EC50 (nM)>


> <kon (M-1-s-1)>


> <koff (s-1)>


> <pH>


> <Temp (C)>


> <Curation/DataSource>
ChEMBL

> <Article DOI>
10.1016/j.bmcl.2018.03.077

> <BindingDB Entry DOI>
10.7270/Q25Q4ZRC

> <PMID>
29631961

> <PubChem AID>


> <Patent Number>


> <Authors>
Kapojos, MM; Abdjul, DB; Yamazaki, H; Ohshiro, T; Rotinsulu, H; Wewengkang, DS; Sumilat, DA; Tomoda, H; Namikoshi, M; Uchida, R

> <Institution>
Tohoku Medical and Pharmaceutical University

> <Link to Ligand in BindingDB>
http://www.bindingdb.org/bind/chemsearch/marvin/MolStructure.jsp?monomerid=50360305

> <Link to Target in BindingDB>
http://www.bindingdb.org/jsp/dbsearch/PrimarySearch_ki.jsp?energyterm=kJ/mole&tag=pol&polymerid=50007205&target=Sterol+O-acyltransferase+2&column=ki&startPg=0&Increment=50&submit=Search

> <Link to Ligand-Target Pair in BindingDB>
http://www.bindingdb.org/jsp/dbsearch/PrimarySearch_ki.jsp?energyterm=kJ/mole&tag=r21&monomerid=50360305&enzyme=Sterol+O-acyltransferase+2&column=ki&startPg=0&Increment=50&submit=Search

> <Ligand HET ID in PDB>


> <PDB ID(s) for Ligand-Target Complex>


> <PubChem CID>
9848317

> <PubChem SID>
136964367

> <ChEBI ID of Ligand>


> <ChEMBL ID of Ligand>
CHEMBL409855

> <DrugBank ID of Ligand>


> <IUPHAR_GRAC ID of Ligand>


> <KEGG ID of Ligand>


> <ZINC ID of Ligand>
ZINC44146312

> <Number of Protein Chains in Target (>1 implies a multichain complex)>
1

> <BindingDB Target Chain Sequence>
MEPGGARLRLQRTEGPGGEREHQPCRDGNTETHRAPDLVKWTRHMEAVKAQLLEQAQGQLRELLDRAMWEAIQSYPSQDKPPPLPPPDSLSRTQEPSLGKQKVFIIRKSLLDELMEVQHFRTIYHMFIAGLCVFIISTLAIDFIDEGRLLLEFDLLIFSFGQLPLALVTWVPMFLSTLLAPYQALRLWARPGARGTWTLGAGLGCALLAAHALVLCALPVHVAVEHQLPPASRCVLVFEQVRFLMKSYSFLREAVPGTLRARRGEGIQAPSFSSYLYFLFCPTLIYRETYPRTPYIRWNYVAKNFAQALGCVLYACFILGRLCVPVFANMSREPFSTRALVLSILHATLPGIFMLLLIFFAFLHCWLNAFAEMLRFGDRMFYRDWWNSTSFSNYYRTWNVVVHDWLYSYVYQDGLWLLGAQARGVAMLGVFLVSAVAHEYIFCFVLGFFYPVMLILFLVIGGMLNFMMHDQHTGPAWNVLMWTMLFLGQGIQVSLYCQEWYARRHCPLPQTTFWGLVTPRSWSCHT

> <PDB ID(s) of Target Chain>


> <UniProt (SwissProt) Recommended Name of Target Chain>
Sterol O-acyltransferase 2

> <UniProt (SwissProt) Entry Name of Target Chain>
ACAT-2

> <UniProt (SwissProt) Primary ID of Target Chain>
O77759

> <UniProt (SwissProt) Secondary ID(s) of Target Chain>


> <UniProt (SwissProt) Alternative ID(s) of Target Chain>


> <UniProt (TrEMBL) Submitted Name of Target Chain>


> <UniProt (TrEMBL) Entry Name of Target Chain>


> <UniProt (TrEMBL) Primary ID of Target Chain>


> <UniProt (TrEMBL) Secondary ID(s) of Target Chain>


> <UniProt (TrEMBL) Alternative ID(s) of Target Chain>


$$$$

     RDKit          2D

 23 22  0  0  0  0  0  0  0  0999 V2000
   23.9376   -5.2334    0.0000 C   0  0  0  0  0  0  0  0  0  0  0  0
   24.6521   -4.8209    0.0000 C   0  0  0  0  0  0  0  0  0  0  0  0
   25.3666   -5.2334    0.0000 C   0  0  0  0  0  0  0  0  0  0  0  0
   24.6521   -3.9958    0.0000 C   0  0  0  0  0  0  0  0  0  0  0  0
   26.0811   -4.8209    0.0000 C   0  0  0  0  0  0  0  0  0  0  0  0
   26.7956   -5.2334    0.0000 C   0  0  0  0  0  0  0  0  0  0  0  0
   26.7956   -6.0584    0.0000 O   0  0  0  0  0  0  0  0  0  0  0  0
   27.5101   -4.8209    0.0000 N   0  0  0  0  0  0  0  0  0  0  0  0
   28.2245   -5.2334    0.0000 C   0  0  0  0  0  0  0  0  0  0  0  0
   28.9390   -4.8209    0.0000 C   0  0  0  0  0  0  0  0  0  0  0  0
   28.2245   -6.0584    0.0000 C   0  0  0  0  0  0  0  0  0  0  0  0
   27.5101   -6.4709    0.0000 O   0  0  0  0  0  0  0  0  0  0  0  0
   28.9390   -6.4709    0.0000 C   0  0  0  0  0  0  0  0  0  0  0  0
   28.9390   -7.2959    0.0000 C   0  0  0  0  0  0  0  0  0  0  0  0
   29.6535   -5.2334    0.0000 C   0  0  0  0  0  0  0  0  0  0  0  0
   30.3679   -4.8209    0.0000 C   0  0  0  0  0  0  0  0  0  0  0  0
   29.6535   -6.0584    0.0000 C   0  0  0  0  0  0  0  0  0  0  0  0
   31.0824   -5.2334    0.0000 Cl  0  0  0  0  0  0  0  0  0  0  0  0
   30.3679   -3.9958    0.0000 Cl  0  0  0  0  0  0  0  0  0  0  0  0
   31.0794   -4.4001    0.0000 Cl  0  0  0  0  0  0  0  0  0  0  0  0
   23.2232   -4.8209    0.0000 Cl  0  0  0  0  0  0  0  0  0  0  0  0
   23.9376   -6.0584    0.0000 Cl  0  0  0  0  0  0  0  0  0  0  0  0
   23.2209   -5.6417    0.0000 Cl  0  0  0  0  0  0  0  0  0  0  0  0
  1  2  1  0
  2  3  1  0
  2  4  1  1
  5  3  2  0
  5  6  1  0
  6  7  2  0
  6  8  1  0
  8  9  1  0
  9 10  1  1
  9 11  1  0
 11 12  2  0
 11 13  1  0
 13 14  1  0
 10 15  1  0
 15 16  1  0
 15 17  1  1
 16 18  1  0
 16 19  1  0
 16 20  1  0
  1 21  1  0
  1 22  1  0
  1 23  1  0
M  END
> <From>
www.bindingDB.org

> <BindingDB Reactant_set_id>
51125429

> <Ligand InChI>
InChI=1S/C14H19Cl6NO2/c1-4-11(22)10(7-9(3)14(18,19)20)21-12(23)6-5-8(2)13(15,16)17/h5-6,8-10H,4,7H2,1-3H3,(H,21,23)/b6-5+/t8-,9-,10-/m0/s1

> <Ligand InChI Key>
ZQVVKTNITFQVMX-JKNZDJNPSA-N

> <BindingDB MonomerID>
50461447

> <BindingDB Ligand Name>
CHEMBL4228016

> <Target Name>
Sterol O-acyltransferase 2

> <Target Source Organism According to Curator or DataSource>


> <Ki (nM)>


> <IC50 (nM)>
 3200

> <Kd (nM)>


> <EC50 (nM)>


> <kon (M-1-s-1)>


> <koff (s-1)>


> <pH>


> <Temp (C)>


> <Curation/DataSource>
ChEMBL

> <Article DOI>
10.1016/j.bmcl.2018.03.077

> <BindingDB Entry DOI>
10.7270/Q25Q4ZRC

> <PMID>
29631961

> <PubChem AID>


> <Patent Number>


> <Authors>
Kapojos, MM; Abdjul, DB; Yamazaki, H; Ohshiro, T; Rotinsulu, H; Wewengkang, DS; Sumilat, DA; Tomoda, H; Namikoshi, M; Uchida, R

> <Institution>
Tohoku Medical and Pharmaceutical University

> <Link to Ligand in BindingDB>
http://www.bindingdb.org/bind/chemsearch/marvin/MolStructure.jsp?monomerid=50461447

> <Link to Target in BindingDB>
http://www.bindingdb.org/jsp/dbsearch/PrimarySearch_ki.jsp?energyterm=kJ/mole&tag=pol&polymerid=50007205&target=Sterol+O-acyltransferase+2&column=ki&startPg=0&Increment=50&submit=Search

> <Link to Ligand-Target Pair in BindingDB>
http://www.bindingdb.org/jsp/dbsearch/PrimarySearch_ki.jsp?energyterm=kJ/mole&tag=r21&monomerid=50461447&enzyme=Sterol+O-acyltransferase+2&column=ki&startPg=0&Increment=50&submit=Search

> <Ligand HET ID in PDB>


> <PDB ID(s) for Ligand-Target Complex>


> <PubChem CID>
145969558

> <PubChem SID>
433928712

> <ChEBI ID of Ligand>


> <ChEMBL ID of Ligand>


> <DrugBank ID of Ligand>


> <IUPHAR_GRAC ID of Ligand>


> <KEGG ID of Ligand>


> <ZINC ID of Ligand>


> <Number of Protein Chains in Target (>1 implies a multichain complex)>
1

> <BindingDB Target Chain Sequence>
MEPGGARLRLQRTEGPGGEREHQPCRDGNTETHRAPDLVKWTRHMEAVKAQLLEQAQGQLRELLDRAMWEAIQSYPSQDKPPPLPPPDSLSRTQEPSLGKQKVFIIRKSLLDELMEVQHFRTIYHMFIAGLCVFIISTLAIDFIDEGRLLLEFDLLIFSFGQLPLALVTWVPMFLSTLLAPYQALRLWARPGARGTWTLGAGLGCALLAAHALVLCALPVHVAVEHQLPPASRCVLVFEQVRFLMKSYSFLREAVPGTLRARRGEGIQAPSFSSYLYFLFCPTLIYRETYPRTPYIRWNYVAKNFAQALGCVLYACFILGRLCVPVFANMSREPFSTRALVLSILHATLPGIFMLLLIFFAFLHCWLNAFAEMLRFGDRMFYRDWWNSTSFSNYYRTWNVVVHDWLYSYVYQDGLWLLGAQARGVAMLGVFLVSAVAHEYIFCFVLGFFYPVMLILFLVIGGMLNFMMHDQHTGPAWNVLMWTMLFLGQGIQVSLYCQEWYARRHCPLPQTTFWGLVTPRSWSCHT

> <PDB ID(s) of Target Chain>


> <UniProt (SwissProt) Recommended Name of Target Chain>
Sterol O-acyltransferase 2

> <UniProt (SwissProt) Entry Name of Target Chain>
ACAT-2

> <UniProt (SwissProt) Primary ID of Target Chain>
O77759

> <UniProt (SwissProt) Secondary ID(s) of Target Chain>


> <UniProt (SwissProt) Alternative ID(s) of Target Chain>


> <UniProt (TrEMBL) Submitted Name of Target Chain>


> <UniProt (TrEMBL) Entry Name of Target Chain>


> <UniProt (TrEMBL) Primary ID of Target Chain>


> <UniProt (TrEMBL) Secondary ID(s) of Target Chain>


> <UniProt (TrEMBL) Alternative ID(s) of Target Chain>


$$$$

  Mrv0541 11241417312D          

 52 57  0  0  0  0            999 V2000
    1.4875  -18.3963    0.0000 C   0  0  0  0  0  0  0  0  0  0  0  0
    1.0792  -17.6838    0.0000 C   0  0  1  0  0  0  0  0  0  0  0  0
    0.6663  -18.3936    0.0000 C   0  0  0  0  0  0  0  0  0  0  0  0
    0.3708  -16.4504    0.0000 C   0  0  0  0  0  0  0  0  0  0  0  0
    0.3708  -17.2754    0.0000 C   0  0  2  0  0  0  0  0  0  0  0  0
    1.0829  -16.0337    0.0000 C   0  0  0  0  0  0  0  0  0  0  0  0
    1.7949  -16.4504    0.0000 C   0  0  1  0  0  0  0  0  0  0  0  0
    1.7959  -17.2754    0.0000 C   0  0  1  0  0  0  0  0  0  0  0  0
    2.5070  -17.6847    0.0000 C   0  0  0  0  0  0  0  0  0  0  0  0
    3.2216  -17.2736    0.0000 C   0  0  1  0  0  0  0  0  0  0  0  0
    2.5050  -16.0347    0.0000 C   0  0  2  0  0  0  0  0  0  0  0  0
    3.2225  -16.4492    0.0000 C   0  0  2  0  0  0  0  0  0  0  0  0
    3.9363  -16.0374    0.0000 O   0  0  0  0  0  0  0  0  0  0  0  0
    2.5011  -15.2083    0.0000 C   0  0  2  0  0  0  0  0  0  0  0  0
    3.2213  -14.7948    0.0000 C   0  0  0  0  0  0  0  0  0  0  0  0
    3.9438  -15.2084    0.0000 C   0  0  0  0  0  0  0  0  0  0  0  0
    4.6594  -14.7918    0.0000 C   0  0  0  0  0  0  0  0  0  0  0  0
    4.6586  -13.9598    0.0000 C   0  0  0  0  0  0  0  0  0  0  0  0
    3.9360  -13.5461    0.0000 O   0  0  0  0  0  0  0  0  0  0  0  0
    3.2142  -13.9644    0.0000 C   0  0  0  0  0  0  0  0  0  0  0  0
    5.3713  -13.5482    0.0000 C   0  0  0  0  0  0  0  0  0  0  0  0
    6.0871  -13.9608    0.0000 C   0  0  0  0  0  0  0  0  0  0  0  0
    6.8001  -13.5472    0.0000 N   0  0  0  0  0  0  0  0  0  0  0  0
    6.7986  -12.7213    0.0000 C   0  0  0  0  0  0  0  0  0  0  0  0
    6.0782  -12.3150    0.0000 C   0  0  0  0  0  0  0  0  0  0  0  0
    5.3680  -12.7265    0.0000 C   0  0  0  0  0  0  0  0  0  0  0  0
    3.9355  -17.6870    0.0000 O   0  0  0  0  0  0  0  0  0  0  0  0
    4.6505  -17.2754    0.0000 C   0  0  0  0  0  0  0  0  0  0  0  0
    5.3645  -17.6888    0.0000 C   0  0  0  0  0  0  0  0  0  0  0  0
    4.6516  -16.4504    0.0000 O   0  0  0  0  0  0  0  0  0  0  0  0
    2.4976  -13.5556    0.0000 O   0  0  0  0  0  0  0  0  0  0  0  0
    1.7862  -14.7966    0.0000 O   0  0  0  0  0  0  0  0  0  0  0  0
    1.7876  -15.6254    0.0000 C   0  0  0  0  0  0  0  0  0  0  0  0
    3.2167  -15.6212    0.0000 C   0  0  0  0  0  0  0  0  0  0  0  0
   -0.3486  -17.6890    0.0000 O   0  0  0  0  0  0  0  0  0  0  0  0
   -1.0585  -17.2774    0.0000 C   0  0  0  0  0  0  0  0  0  0  0  0
   -1.7720  -17.6911    0.0000 C   0  0  0  0  0  0  0  0  0  0  0  0
   -1.0657  -16.4525    0.0000 O   0  0  0  0  0  0  0  0  0  0  0  0
    5.3587  -18.5140    0.0000 C   0  0  0  0  0  0  0  0  0  0  0  0
    6.0719  -18.9274    0.0000 C   0  0  0  0  0  0  0  0  0  0  0  0
    6.7879  -18.5157    0.0000 C   0  0  0  0  0  0  0  0  0  0  0  0
    6.7863  -17.6864    0.0000 C   0  0  0  0  0  0  0  0  0  0  0  0
    6.0726  -17.2768    0.0000 C   0  0  0  0  0  0  0  0  0  0  0  0
    7.5018  -18.9244    0.0000 C   0  0  0  0  0  0  0  0  0  0  0  0
    8.2163  -19.3368    0.0000 N   0  0  0  0  0  0  0  0  0  0  0  0
   -0.1663  -18.3910    0.0000 O   0  0  0  0  0  0  0  0  0  0  0  0
    1.0765  -19.1094    0.0000 N   0  0  0  0  0  0  0  0  0  0  0  0
    0.6618  -19.8226    0.0000 C   0  0  0  0  0  0  0  0  0  0  0  0
   -0.1701  -19.8200    0.0000 C   0  0  0  0  0  0  0  0  0  0  0  0
   -0.5803  -20.5331    0.0000 O   0  0  0  0  0  0  0  0  0  0  0  0
   -0.5766  -19.1042    0.0000 O   0  0  0  0  0  0  0  0  0  0  0  0
   -1.4016  -19.1016    0.0000 C   0  0  0  0  0  0  0  0  0  0  0  0
  2  1  1  1  0  0  0
  2  3  1  6  0  0  0
  5  4  1  0  0  0  0
  4  6  1  0  0  0  0
  2  5  1  0  0  0  0
  8  2  1  0  0  0  0
  7  6  1  0  0  0  0
  7  8  1  0  0  0  0
 11  7  1  1  0  0  0
  8  9  1  1  0  0  0
 10  9  1  0  0  0  0
 12 10  1  0  0  0  0
 11 12  1  0  0  0  0
 11 14  1  0  0  0  0
 12 13  1  0  0  0  0
 13 16  1  0  0  0  0
 14 15  1  0  0  0  0
 15 16  2  0  0  0  0
 15 20  1  0  0  0  0
 16 17  1  0  0  0  0
 17 18  2  0  0  0  0
 18 19  1  0  0  0  0
 19 20  1  0  0  0  0
 21 22  2  0  0  0  0
 22 23  1  0  0  0  0
 23 24  2  0  0  0  0
 24 25  1  0  0  0  0
 25 26  2  0  0  0  0
 26 21  1  0  0  0  0
 18 21  1  0  0  0  0
 10 27  1  1  0  0  0
 27 28  1  0  0  0  0
 28 29  1  0  0  0  0
 28 30  2  0  0  0  0
 20 31  2  0  0  0  0
 14 32  1  1  0  0  0
  7 33  1  1  0  0  0
 12 34  1  1  0  0  0
  5 35  1  1  0  0  0
 35 36  1  0  0  0  0
 36 37  1  0  0  0  0
 36 38  2  0  0  0  0
 29 39  2  0  0  0  0
 39 40  1  0  0  0  0
 40 41  2  0  0  0  0
 41 42  1  0  0  0  0
 42 43  2  0  0  0  0
 43 29  1  0  0  0  0
 44 45  3  0  0  0  0
 41 44  1  0  0  0  0
  3 46  2  0  0  0  0
  3 47  1  0  0  0  0
 47 48  1  0  0  0  0
 48 49  1  0  0  0  0
 49 50  2  0  0  0  0
 49 51  1  0  0  0  0
 51 52  1  0  0  0  0
M  END
> <From>
www.bindingDB.org

> <BindingDB Reactant_set_id>
51061833

> <Ligand InChI>
InChI=1S/C38H39N3O11/c1-20(42)49-27-12-13-36(2)26(37(27,3)35(47)41-19-29(43)48-5)16-28(51-33(45)22-10-8-21(17-39)9-11-22)38(4)32(36)31(44)30-25(52-38)15-24(50-34(30)46)23-7-6-14-40-18-23/h6-11,14-15,18,26-28,31-32,44H,12-13,16,19H2,1-5H3,(H,41,47)/t26-,27+,28+,31+,32-,36+,37+,38-/m1/s1

> <Ligand InChI Key>
XRCLQKYZYHWBGT-YIMQSPFDSA-N

> <BindingDB MonomerID>
50433221

> <BindingDB Ligand Name>
CHEMBL2375600

> <Target Name>
Sterol O-acyltransferase 2

> <Target Source Organism According to Curator or DataSource>


> <Ki (nM)>


> <IC50 (nM)>
 3410

> <Kd (nM)>


> <EC50 (nM)>


> <kon (M-1-s-1)>


> <koff (s-1)>


> <pH>


> <Temp (C)>


> <Curation/DataSource>
ChEMBL

> <Article DOI>
10.1016/j.bmcl.2013.02.088

> <BindingDB Entry DOI>
10.7270/Q20866P3

> <PMID>
23535327

> <PubChem AID>


> <Patent Number>


> <Authors>
Ohtawa, M; Yamazaki, H; Matsuda, D; Ohshiro, T; Rudel, LL; Omura, S; Tomoda, H; Nagamitsu, T

> <Institution>
Kitasato University

> <Link to Ligand in BindingDB>
http://www.bindingdb.org/bind/chemsearch/marvin/MolStructure.jsp?monomerid=50433221

> <Link to Target in BindingDB>
http://www.bindingdb.org/jsp/dbsearch/PrimarySearch_ki.jsp?energyterm=kJ/mole&tag=pol&polymerid=7773&target=Sterol+O-acyltransferase+2&column=ki&startPg=0&Increment=50&submit=Search

> <Link to Ligand-Target Pair in BindingDB>
http://www.bindingdb.org/jsp/dbsearch/PrimarySearch_ki.jsp?energyterm=kJ/mole&tag=r21&monomerid=50433221&enzyme=Sterol+O-acyltransferase+2&column=ki&startPg=0&Increment=50&submit=Search

> <Ligand HET ID in PDB>


> <PDB ID(s) for Ligand-Target Complex>


> <PubChem CID>
71602908

> <PubChem SID>
175445538

> <ChEBI ID of Ligand>


> <ChEMBL ID of Ligand>
CHEMBL2375600

> <DrugBank ID of Ligand>


> <IUPHAR_GRAC ID of Ligand>


> <KEGG ID of Ligand>


> <ZINC ID of Ligand>
ZINC96258638

> <Number of Protein Chains in Target (>1 implies a multichain complex)>
1

> <BindingDB Target Chain Sequence>
MEPGGARLRLQRTEGLGGERERQPCGDGNTETHRAPDLVQWTRHMEAVKAQLLEQAQGQLRELLDRAMREAIQSYPSQDKPLPPPPPGSLSRTQEPSLGKQKVFIIRKSLLDELMEVQHFRTIYHMFIAGLCVFIISTLAIDFIDEGRLLLEFDLLIFSFGQLPLALVTWVPMFLSTLLAPYQALRLWARGTWTQATGLGCALLAAHAVVLCALPVHVAVEHQLPPASRCVLVFEQVRFLMKSYSFLREAVPGTLRARRGEGIQAPSFSSYLYFLFCPTLIYRETYPRTPYVRWNYVAKNFAQALGCVLYACFILGRLCVPVFANMSREPFSTRALVLSILHATLPGIFMLLLIFFAFLHCWLNAFAEMLRFGDRMFYRDWWNSTSFSNYYRTWNVVVHDWLYSYVYQDGLRLLGARARGVAMLGVFLVSAVAHEYIFCFVLGFFYPVMLILFLVIGGMLNFMMHDQRTGPAWNVLMWTMLFLGQGIQVSLYCQEWYARRHCPLPQATFWGLVTPRSWSCHT

> <PDB ID(s) of Target Chain>


> <UniProt (SwissProt) Recommended Name of Target Chain>
Sterol O-acyltransferase 2

> <UniProt (SwissProt) Entry Name of Target Chain>
ACAT-2

> <UniProt (SwissProt) Primary ID of Target Chain>
O75908

> <UniProt (SwissProt) Secondary ID(s) of Target Chain>
F5H7W4 I6L9H9 Q4VB99 Q4VBA1 Q96TD4 Q9UNR2

> <UniProt (SwissProt) Alternative ID(s) of Target Chain>


> <UniProt (TrEMBL) Submitted Name of Target Chain>


> <UniProt (TrEMBL) Entry Name of Target Chain>


> <UniProt (TrEMBL) Primary ID of Target Chain>


> <UniProt (TrEMBL) Secondary ID(s) of Target Chain>


> <UniProt (TrEMBL) Alternative ID(s) of Target Chain>


$$$$

     RDKit          2D

 24 24  0  0  0  0  0  0  0  0999 V2000
   37.2819   -4.5338    0.0000 N   0  0  0  0  0  0  0  0  0  0  0  0
   37.2819   -5.3592    0.0000 C   0  0  0  0  0  0  0  0  0  0  0  0
   37.9949   -5.7699    0.0000 C   0  0  0  0  0  0  0  0  0  0  0  0
   38.7079   -5.3592    0.0000 N   0  0  0  0  0  0  0  0  0  0  0  0
   38.7079   -4.5338    0.0000 C   0  0  0  0  0  0  0  0  0  0  0  0
   37.9949   -4.1189    0.0000 C   0  0  0  0  0  0  0  0  0  0  0  0
   37.9949   -6.5953    0.0000 O   0  0  0  0  0  0  0  0  0  0  0  0
   37.9949   -3.2935    0.0000 O   0  0  0  0  0  0  0  0  0  0  0  0
   39.4245   -4.1251    0.0000 C   0  0  0  0  0  0  0  0  0  0  0  0
   40.1387   -4.5379    0.0000 C   0  0  0  0  0  0  0  0  0  0  0  0
   40.8553   -4.1293    0.0000 C   0  0  0  0  0  0  0  0  0  0  0  0
   40.1363   -5.3633    0.0000 C   0  0  0  0  0  0  0  0  0  0  0  0
   41.5653   -4.5421    0.0000 Cl  0  0  0  0  0  0  0  0  0  0  0  0
   40.8577   -3.3039    0.0000 Cl  0  0  0  0  0  0  0  0  0  0  0  0
   41.5626   -3.7082    0.0000 Cl  0  0  0  0  0  0  0  0  0  0  0  0
   36.5672   -5.7750    0.0000 C   0  0  0  0  0  0  0  0  0  0  0  0
   35.8512   -5.3612    0.0000 C   0  0  0  0  0  0  0  0  0  0  0  0
   35.1404   -5.7771    0.0000 C   0  0  0  0  0  0  0  0  0  0  0  0
   35.8500   -4.5358    0.0000 C   0  0  0  0  0  0  0  0  0  0  0  0
   34.4244   -5.3633    0.0000 Cl  0  0  0  0  0  0  0  0  0  0  0  0
   35.1416   -6.6025    0.0000 Cl  0  0  0  0  0  0  0  0  0  0  0  0
   34.4198   -6.1805    0.0000 Cl  0  0  0  0  0  0  0  0  0  0  0  0
   36.5700   -4.1242    0.0000 C   0  0  0  0  0  0  0  0  0  0  0  0
   39.4189   -5.7702    0.0000 C   0  0  0  0  0  0  0  0  0  0  0  0
  1  2  1  0
  1  6  1  0
  2  3  1  0
  3  4  1  0
  4  5  1  0
  5  6  1  0
  3  7  2  0
  6  8  2  0
  5  9  1  6
  9 10  1  0
 10 11  1  0
 10 12  1  1
 11 13  1  0
 11 14  1  0
 11 15  1  0
  2 16  1  6
 16 17  1  0
 17 18  1  0
 17 19  1  1
 18 20  1  0
 18 21  1  0
 18 22  1  0
  1 23  1  0
  4 24  1  0
M  END
> <From>
www.bindingDB.org

> <BindingDB Reactant_set_id>
51125430

> <Ligand InChI>
InChI=1S/C14H20Cl6N2O2/c1-7(13(15,16)17)5-9-11(23)22(4)10(12(24)21(9)3)6-8(2)14(18,19)20/h7-10H,5-6H2,1-4H3/t7-,8-,9-,10-/m0/s1

> <Ligand InChI Key>
FAXNAEOPEXUENY-XKNYDFJKSA-N

> <BindingDB MonomerID>
50461448

> <BindingDB Ligand Name>
CHEMBL4227559

> <Target Name>
Sterol O-acyltransferase 2

> <Target Source Organism According to Curator or DataSource>


> <Ki (nM)>


> <IC50 (nM)>
 4200

> <Kd (nM)>


> <EC50 (nM)>


> <kon (M-1-s-1)>


> <koff (s-1)>


> <pH>


> <Temp (C)>


> <Curation/DataSource>
ChEMBL

> <Article DOI>
10.1016/j.bmcl.2018.03.077

> <BindingDB Entry DOI>
10.7270/Q25Q4ZRC

> <PMID>
29631961

> <PubChem AID>


> <Patent Number>


> <Authors>
Kapojos, MM; Abdjul, DB; Yamazaki, H; Ohshiro, T; Rotinsulu, H; Wewengkang, DS; Sumilat, DA; Tomoda, H; Namikoshi, M; Uchida, R

> <Institution>
Tohoku Medical and Pharmaceutical University

> <Link to Ligand in BindingDB>
http://www.bindingdb.org/bind/chemsearch/marvin/MolStructure.jsp?monomerid=50461448

> <Link to Target in BindingDB>
http://www.bindingdb.org/jsp/dbsearch/PrimarySearch_ki.jsp?energyterm=kJ/mole&tag=pol&polymerid=50007205&target=Sterol+O-acyltransferase+2&column=ki&startPg=0&Increment=50&submit=Search

> <Link to Ligand-Target Pair in BindingDB>
http://www.bindingdb.org/jsp/dbsearch/PrimarySearch_ki.jsp?energyterm=kJ/mole&tag=r21&monomerid=50461448&enzyme=Sterol+O-acyltransferase+2&column=ki&startPg=0&Increment=50&submit=Search

> <Ligand HET ID in PDB>


> <PDB ID(s) for Ligand-Target Complex>


> <PubChem CID>
45140270

> <PubChem SID>
433928713

> <ChEBI ID of Ligand>


> <ChEMBL ID of Ligand>


> <DrugBank ID of Ligand>


> <IUPHAR_GRAC ID of Ligand>


> <KEGG ID of Ligand>


> <ZINC ID of Ligand>


> <Number of Protein Chains in Target (>1 implies a multichain complex)>
1

> <BindingDB Target Chain Sequence>
MEPGGARLRLQRTEGPGGEREHQPCRDGNTETHRAPDLVKWTRHMEAVKAQLLEQAQGQLRELLDRAMWEAIQSYPSQDKPPPLPPPDSLSRTQEPSLGKQKVFIIRKSLLDELMEVQHFRTIYHMFIAGLCVFIISTLAIDFIDEGRLLLEFDLLIFSFGQLPLALVTWVPMFLSTLLAPYQALRLWARPGARGTWTLGAGLGCALLAAHALVLCALPVHVAVEHQLPPASRCVLVFEQVRFLMKSYSFLREAVPGTLRARRGEGIQAPSFSSYLYFLFCPTLIYRETYPRTPYIRWNYVAKNFAQALGCVLYACFILGRLCVPVFANMSREPFSTRALVLSILHATLPGIFMLLLIFFAFLHCWLNAFAEMLRFGDRMFYRDWWNSTSFSNYYRTWNVVVHDWLYSYVYQDGLWLLGAQARGVAMLGVFLVSAVAHEYIFCFVLGFFYPVMLILFLVIGGMLNFMMHDQHTGPAWNVLMWTMLFLGQGIQVSLYCQEWYARRHCPLPQTTFWGLVTPRSWSCHT

> <PDB ID(s) of Target Chain>


> <UniProt (SwissProt) Recommended Name of Target Chain>
Sterol O-acyltransferase 2

> <UniProt (SwissProt) Entry Name of Target Chain>
ACAT-2

> <UniProt (SwissProt) Primary ID of Target Chain>
O77759

> <UniProt (SwissProt) Secondary ID(s) of Target Chain>


> <UniProt (SwissProt) Alternative ID(s) of Target Chain>


> <UniProt (TrEMBL) Submitted Name of Target Chain>


> <UniProt (TrEMBL) Entry Name of Target Chain>


> <UniProt (TrEMBL) Primary ID of Target Chain>


> <UniProt (TrEMBL) Secondary ID(s) of Target Chain>


> <UniProt (TrEMBL) Alternative ID(s) of Target Chain>


$$$$

  Mrv0541 11241417082D          

 42 47  0  0  0  0            999 V2000
   28.8440  -21.0079    0.0000 C   0  0  0  0  0  0  0  0  0  0  0  0
   28.8428  -21.8353    0.0000 C   0  0  0  0  0  0  0  0  0  0  0  0
   29.5576  -22.2481    0.0000 N   0  0  0  0  0  0  0  0  0  0  0  0
   30.2740  -21.8348    0.0000 C   0  0  0  0  0  0  0  0  0  0  0  0
   30.2712  -21.0043    0.0000 C   0  0  0  0  0  0  0  0  0  0  0  0
   29.5558  -20.5952    0.0000 C   0  0  0  0  0  0  0  0  0  0  0  0
   30.9868  -22.2454    0.0000 N   0  0  0  0  0  0  0  0  0  0  0  0
   30.9861  -23.0713    0.0000 C   0  0  0  0  0  0  0  0  0  0  0  0
   31.6971  -23.4826    0.0000 C   0  0  0  0  0  0  0  0  0  0  0  0
   32.4134  -23.0725    0.0000 C   0  0  0  0  0  0  0  0  0  0  0  0
   32.4141  -22.2466    0.0000 C   0  0  0  0  0  0  0  0  0  0  0  0
   31.6986  -21.8308    0.0000 C   0  0  0  0  0  0  0  0  0  0  0  0
   33.1270  -23.4867    0.0000 C   0  0  0  0  0  0  0  0  0  0  0  0
   33.8423  -23.0758    0.0000 O   0  0  0  0  0  0  0  0  0  0  0  0
   34.5559  -23.4898    0.0000 C   0  0  0  0  0  0  0  0  0  0  0  0
   34.5491  -24.3132    0.0000 C   0  0  0  0  0  0  0  0  0  0  0  0
   35.2617  -24.7272    0.0000 C   0  0  0  0  0  0  0  0  0  0  0  0
   35.9781  -24.3162    0.0000 C   0  0  0  0  0  0  0  0  0  0  0  0
   35.9773  -23.4870    0.0000 C   0  0  0  0  0  0  0  0  0  0  0  0
   35.2639  -23.0767    0.0000 C   0  0  0  0  0  0  0  0  0  0  0  0
   28.1294  -20.5956    0.0000 N   0  0  0  0  0  0  0  0  0  0  0  0
   27.4151  -21.0083    0.0000 C   0  0  0  0  0  0  0  0  0  0  0  0
   26.7005  -20.5960    0.0000 C   0  0  0  0  0  0  0  0  0  0  0  0
   27.4153  -21.8333    0.0000 O   0  0  0  0  0  0  0  0  0  0  0  0
   26.6182  -19.7762    0.0000 C   0  0  0  0  0  0  0  0  0  0  0  0
   25.9511  -20.9323    0.0000 O   0  0  0  0  0  0  0  0  0  0  0  0
   25.3988  -20.3194    0.0000 C   0  0  0  0  0  0  0  0  0  0  0  0
   25.8161  -19.6036    0.0000 C   0  0  0  0  0  0  0  0  0  0  0  0
   25.4070  -18.8883    0.0000 C   0  0  0  0  0  0  0  0  0  0  0  0
   24.5791  -18.8825    0.0000 C   0  0  0  0  0  0  0  0  0  0  0  0
   24.1618  -19.5985    0.0000 C   0  0  0  0  0  0  0  0  0  0  0  0
   24.5725  -20.3200    0.0000 C   0  0  0  0  0  0  0  0  0  0  0  0
   27.2333  -19.2263    0.0000 C   0  0  0  0  0  0  0  0  0  0  0  0
   24.1704  -18.1659    0.0000 C   0  0  0  0  0  0  0  0  0  0  0  0
   24.5880  -17.4573    0.0000 C   0  0  0  0  0  0  0  0  0  0  0  0
   24.1800  -16.7411    0.0000 C   0  0  0  0  0  0  0  0  0  0  0  0
   23.3542  -16.7362    0.0000 C   0  0  0  0  0  0  0  0  0  0  0  0
   22.9380  -17.4533    0.0000 C   0  0  0  0  0  0  0  0  0  0  0  0
   23.3482  -18.1666    0.0000 C   0  0  0  0  0  0  0  0  0  0  0  0
   36.6936  -23.0709    0.0000 C   0  0  0  0  0  0  0  0  0  0  0  0
   37.4086  -23.4824    0.0000 O   0  0  0  0  0  0  0  0  0  0  0  0
   36.6925  -22.2459    0.0000 O   0  0  0  0  0  0  0  0  0  0  0  0
  1  2  2  0  0  0  0
  2  3  1  0  0  0  0
  3  4  2  0  0  0  0
  4  5  1  0  0  0  0
  5  6  2  0  0  0  0
  6  1  1  0  0  0  0
  7  8  1  0  0  0  0
  7 12  1  0  0  0  0
  8  9  1  0  0  0  0
  9 10  1  0  0  0  0
 10 11  1  0  0  0  0
 11 12  1  0  0  0  0
  4  7  1  0  0  0  0
 10 13  1  0  0  0  0
 13 14  1  0  0  0  0
 14 15  1  0  0  0  0
 15 16  2  0  0  0  0
 16 17  1  0  0  0  0
 17 18  2  0  0  0  0
 18 19  1  0  0  0  0
 19 20  2  0  0  0  0
 20 15  1  0  0  0  0
  1 21  1  0  0  0  0
 21 22  1  0  0  0  0
 22 23  1  0  0  0  0
 22 24  2  0  0  0  0
 23 25  2  0  0  0  0
 25 28  1  0  0  0  0
 27 26  1  0  0  0  0
 26 23  1  0  0  0  0
 27 28  1  0  0  0  0
 27 32  2  0  0  0  0
 28 29  2  0  0  0  0
 29 30  1  0  0  0  0
 30 31  2  0  0  0  0
 31 32  1  0  0  0  0
 25 33  1  0  0  0  0
 30 34  1  0  0  0  0
 34 35  2  0  0  0  0
 35 36  1  0  0  0  0
 36 37  2  0  0  0  0
 37 38  1  0  0  0  0
 38 39  2  0  0  0  0
 39 34  1  0  0  0  0
 40 41  1  0  0  0  0
 40 42  2  0  0  0  0
 19 40  1  0  0  0  0
M  END
> <From>
www.bindingDB.org

> <BindingDB Reactant_set_id>
51052035

> <Ligand InChI>
InChI=1S/C34H31N3O5/c1-22-29-19-25(24-6-3-2-4-7-24)10-12-30(29)42-32(22)33(38)36-27-11-13-31(35-20-27)37-16-14-23(15-17-37)21-41-28-9-5-8-26(18-28)34(39)40/h2-13,18-20,23H,14-17,21H2,1H3,(H,36,38)(H,39,40)

> <Ligand InChI Key>
MXPRNVBVWZYUBT-UHFFFAOYSA-N

> <BindingDB MonomerID>
50429009

> <BindingDB Ligand Name>
CHEMBL2334100

> <Target Name>
Sterol O-acyltransferase 2

> <Target Source Organism According to Curator or DataSource>


> <Ki (nM)>


> <IC50 (nM)>
 4700

> <Kd (nM)>


> <EC50 (nM)>


> <kon (M-1-s-1)>


> <koff (s-1)>


> <pH>


> <Temp (C)>


> <Curation/DataSource>
ChEMBL

> <Article DOI>
10.1016/j.bmcl.2012.12.040

> <BindingDB Entry DOI>
10.7270/Q2SX6FJW

> <PMID>
23317570

> <PubChem AID>


> <Patent Number>


> <Authors>
Ting, PC; Lee, JF; Zorn, N; Kim, HM; Aslanian, RG; Lin, M; Smith, M; Walker, SS; Cook, J; Van Heek, M; Lachowicz, J

> <Institution>
Merck Research Laboratories

> <Link to Ligand in BindingDB>
http://www.bindingdb.org/bind/chemsearch/marvin/MolStructure.jsp?monomerid=50429009

> <Link to Target in BindingDB>
http://www.bindingdb.org/jsp/dbsearch/PrimarySearch_ki.jsp?energyterm=kJ/mole&tag=pol&polymerid=7773&target=Sterol+O-acyltransferase+2&column=ki&startPg=0&Increment=50&submit=Search

> <Link to Ligand-Target Pair in BindingDB>
http://www.bindingdb.org/jsp/dbsearch/PrimarySearch_ki.jsp?energyterm=kJ/mole&tag=r21&monomerid=50429009&enzyme=Sterol+O-acyltransferase+2&column=ki&startPg=0&Increment=50&submit=Search

> <Ligand HET ID in PDB>


> <PDB ID(s) for Ligand-Target Complex>


> <PubChem CID>
52917768

> <PubChem SID>
164157884

> <ChEBI ID of Ligand>


> <ChEMBL ID of Ligand>
CHEMBL2334100

> <DrugBank ID of Ligand>


> <IUPHAR_GRAC ID of Ligand>


> <KEGG ID of Ligand>


> <ZINC ID of Ligand>
ZINC95591444

> <Number of Protein Chains in Target (>1 implies a multichain complex)>
1

> <BindingDB Target Chain Sequence>
MEPGGARLRLQRTEGLGGERERQPCGDGNTETHRAPDLVQWTRHMEAVKAQLLEQAQGQLRELLDRAMREAIQSYPSQDKPLPPPPPGSLSRTQEPSLGKQKVFIIRKSLLDELMEVQHFRTIYHMFIAGLCVFIISTLAIDFIDEGRLLLEFDLLIFSFGQLPLALVTWVPMFLSTLLAPYQALRLWARGTWTQATGLGCALLAAHAVVLCALPVHVAVEHQLPPASRCVLVFEQVRFLMKSYSFLREAVPGTLRARRGEGIQAPSFSSYLYFLFCPTLIYRETYPRTPYVRWNYVAKNFAQALGCVLYACFILGRLCVPVFANMSREPFSTRALVLSILHATLPGIFMLLLIFFAFLHCWLNAFAEMLRFGDRMFYRDWWNSTSFSNYYRTWNVVVHDWLYSYVYQDGLRLLGARARGVAMLGVFLVSAVAHEYIFCFVLGFFYPVMLILFLVIGGMLNFMMHDQRTGPAWNVLMWTMLFLGQGIQVSLYCQEWYARRHCPLPQATFWGLVTPRSWSCHT

> <PDB ID(s) of Target Chain>


> <UniProt (SwissProt) Recommended Name of Target Chain>
Sterol O-acyltransferase 2

> <UniProt (SwissProt) Entry Name of Target Chain>
ACAT-2

> <UniProt (SwissProt) Primary ID of Target Chain>
O75908

> <UniProt (SwissProt) Secondary ID(s) of Target Chain>
F5H7W4 I6L9H9 Q4VB99 Q4VBA1 Q96TD4 Q9UNR2

> <UniProt (SwissProt) Alternative ID(s) of Target Chain>


> <UniProt (TrEMBL) Submitted Name of Target Chain>


> <UniProt (TrEMBL) Entry Name of Target Chain>


> <UniProt (TrEMBL) Primary ID of Target Chain>


> <UniProt (TrEMBL) Secondary ID(s) of Target Chain>


> <UniProt (TrEMBL) Alternative ID(s) of Target Chain>


$$$$
 
  Mrv0541 11221409242D          

 41 48  0  0  0  0            999 V2000
   15.5849   -1.4384    0.0000 C   0  0  1  0  0  0  0  0  0  0  0  0
   16.3020   -0.1987    0.0000 C   0  0  0  0  0  0  0  0  0  0  0  0
   17.0233    1.0410    0.0000 C   0  0  0  0  0  0  0  0  0  0  0  0
   16.2976   -1.8531    0.0000 C   0  0  2  0  0  0  0  0  0  0  0  0
   17.0104   -1.4384    0.0000 C   0  0  2  0  0  0  0  0  0  0  0  0
   17.8138    0.7775    0.0000 N   0  0  0  0  0  0  0  0  0  0  0  0
   17.0147   -0.6134    0.0000 C   0  0  0  0  0  0  0  0  0  0  0  0
   15.5849   -0.6134    0.0000 C   0  0  2  0  0  0  0  0  0  0  0  0
   16.6605   -3.3606    0.0000 N   0  0  0  0  0  0  0  0  0  0  0  0
   16.3020    0.6264    0.0000 C   0  0  0  0  0  0  0  0  0  0  0  0
   17.0147    1.8660    0.0000 C   0  0  0  0  0  0  0  0  0  0  0  0
   15.1660   -2.1382    0.0000 C   0  0  0  0  0  0  0  0  0  0  0  0
   15.8355   -3.3606    0.0000 C   0  0  2  0  0  0  0  0  0  0  0  0
   18.3020    1.4514    0.0000 C   0  0  0  0  0  0  0  0  0  0  0  0
   17.8138    2.1296    0.0000 C   0  0  0  0  0  0  0  0  0  0  0  0
   14.8765   -1.8531    0.0000 C   0  0  0  0  0  0  0  0  0  0  0  0
   14.1638   -1.4384    0.0000 N   0  0  0  0  0  0  0  0  0  0  0  0
   15.5893    1.0410    0.0000 N   0  0  0  0  0  0  0  0  0  0  0  0
   14.8765   -0.1987    0.0000 C   0  0  0  0  0  0  0  0  0  0  0  0
   15.2523   -3.9394    0.0000 C   0  0  0  0  0  0  0  0  0  0  0  0
   17.7188   -1.0237    0.0000 O   0  0  0  0  0  0  0  0  0  0  0  0
   14.1638   -0.6134    0.0000 C   0  0  0  0  0  0  0  0  0  0  0  0
   15.2523   -4.7688    0.0000 C   0  0  0  0  0  0  0  0  0  0  0  0
   15.6756   -2.4362    0.0000 C   0  0  0  0  0  0  0  0  0  0  0  0
   16.5050   -2.4362    0.0000 C   0  0  0  0  0  0  0  0  0  0  0  0
   17.7274   -1.8617    0.0000 C   0  0  0  0  0  0  0  0  0  0  0  0
   17.2436   -3.9394    0.0000 C   0  0  0  0  0  0  0  0  0  0  0  0
   15.5893    1.8660    0.0000 C   0  0  0  0  0  0  0  0  0  0  0  0
   16.3020    2.2807    0.0000 C   0  0  0  0  0  0  0  0  0  0  0  0
   18.1421    2.8812    0.0000 C   0  0  0  0  0  0  0  0  0  0  0  0
   19.1270    1.5421    0.0000 C   0  0  0  0  0  0  0  0  0  0  0  0
   13.4511   -1.8531    0.0000 C   0  0  0  0  0  0  0  0  0  0  0  0
   17.2177   -2.8466    0.0000 C   0  0  0  0  0  0  0  0  0  0  0  0
   15.8355   -5.3519    0.0000 C   0  0  0  0  0  0  0  0  0  0  0  0
   14.9716   -2.8509    0.0000 C   0  0  0  0  0  0  0  0  0  0  0  0
   17.2436   -4.7688    0.0000 C   0  0  0  0  0  0  0  0  0  0  0  0
   18.9671    2.9719    0.0000 C   0  0  0  0  0  0  0  0  0  0  0  0
   13.8485   -2.5615    0.0000 C   0  0  0  0  0  0  0  0  0  0  0  0
   19.4639    2.3023    0.0000 C   0  0  0  0  0  0  0  0  0  0  0  0
   14.5655   -2.1382    0.0000 C   0  0  0  0  0  0  0  0  0  0  0  0
   16.6605   -5.3519    0.0000 C   0  0  0  0  0  0  0  0  0  0  0  0
  8  2  1  1  0  0  0
  3 10  1  0  0  0  0
  1  4  1  0  0  0  0
  4  5  1  0  0  0  0
  6  3  1  0  0  0  0
  7  2  2  0  0  0  0
  1  8  1  0  0  0  0
  4  9  1  6  0  0  0
 10  2  1  0  0  0  0
 11  3  2  0  0  0  0
  1 12  1  0  0  0  0
 13 12  1  0  0  0  0
 14  6  1  0  0  0  0
 15 11  1  0  0  0  0
  1 16  1  1  0  0  0
 17 16  1  0  0  0  0
 18 10  2  0  0  0  0
  8 19  1  0  0  0  0
 13 20  1  0  0  0  0
  5 21  1  6  0  0  0
 22 17  1  0  0  0  0
 23 20  2  0  0  0  0
 24 25  2  0  0  0  0
 25 33  1  0  0  0  0
  5 26  1  0  0  0  0
 27  9  1  0  0  0  0
 28 18  1  0  0  0  0
 29 28  2  0  0  0  0
 30 15  1  0  0  0  0
 31 14  1  0  0  0  0
 32 17  1  0  0  0  0
 33 26  1  0  0  0  0
 34 23  1  0  0  0  0
 35 40  1  0  0  0  0
 36 27  1  0  0  0  0
 37 30  2  0  0  0  0
 38 32  1  0  0  0  0
 39 31  2  0  0  0  0
 40 38  1  0  0  0  0
 41 36  1  0  0  0  0
 13  9  1  1  0  0  0
 19 22  1  0  0  0  0
  5  7  1  0  0  0  0
 34 41  1  0  0  0  0
 35 24  1  0  0  0  0
 11 29  1  0  0  0  0
 15 14  2  0  0  0  0
 39 37  1  0  0  0  0
M  END
> <From>
www.bindingDB.org

> <BindingDB Reactant_set_id>
51068066

> <Ligand InChI>
InChI=1S/C36H44N4O/c41-36-18-10-4-1-2-5-11-20-39-22-17-30(35(25-39)23-26-13-7-3-6-12-21-40(26)34(35)36)29(24-36)32-33-28(16-19-37-32)27-14-8-9-15-31(27)38-33/h1,4,7-9,13-16,19,24,26,30,34,38,41H,2-3,5-6,10-12,17-18,20-23,25H2/b4-1-,13-7-/t26-,30-,34+,35-,36-/m0/s1

> <Ligand InChI Key>
FUCSLKWLLSEMDQ-MKYGIPPKSA-N

> <BindingDB MonomerID>
50232478

> <BindingDB Ligand Name>
CHEMBL403233

> <Target Name>
Sterol O-acyltransferase 2

> <Target Source Organism According to Curator or DataSource>


> <Ki (nM)>


> <IC50 (nM)>
 4800

> <Kd (nM)>


> <EC50 (nM)>


> <kon (M-1-s-1)>


> <koff (s-1)>


> <pH>


> <Temp (C)>


> <Curation/DataSource>
ChEMBL

> <Article DOI>
10.1016/j.bmc.2013.04.025

> <BindingDB Entry DOI>
10.7270/Q2PV6MR1

> <PMID>
23665143

> <PubChem AID>


> <Patent Number>


> <Authors>
Eguchi, K; Fujiwara, Y; Hayashida, A; Horlad, H; Kato, H; Rotinsulu, H; Losung, F; Mangindaan, RE; de Voogd, NJ; Takeya, M; Tsukamoto, S

> <Institution>
Kumamoto University

> <Link to Ligand in BindingDB>
http://www.bindingdb.org/bind/chemsearch/marvin/MolStructure.jsp?monomerid=50232478

> <Link to Target in BindingDB>
http://www.bindingdb.org/jsp/dbsearch/PrimarySearch_ki.jsp?energyterm=kJ/mole&tag=pol&polymerid=7773&target=Sterol+O-acyltransferase+2&column=ki&startPg=0&Increment=50&submit=Search

> <Link to Ligand-Target Pair in BindingDB>
http://www.bindingdb.org/jsp/dbsearch/PrimarySearch_ki.jsp?energyterm=kJ/mole&tag=r21&monomerid=50232478&enzyme=Sterol+O-acyltransferase+2&column=ki&startPg=0&Increment=50&submit=Search

> <Ligand HET ID in PDB>


> <PDB ID(s) for Ligand-Target Complex>


> <PubChem CID>
6509753

> <PubChem SID>
104055505

> <ChEBI ID of Ligand>
66667

> <ChEMBL ID of Ligand>
CHEMBL403233

> <DrugBank ID of Ligand>


> <IUPHAR_GRAC ID of Ligand>


> <KEGG ID of Ligand>


> <ZINC ID of Ligand>
ZINC27094605

> <Number of Protein Chains in Target (>1 implies a multichain complex)>
1

> <BindingDB Target Chain Sequence>
MEPGGARLRLQRTEGLGGERERQPCGDGNTETHRAPDLVQWTRHMEAVKAQLLEQAQGQLRELLDRAMREAIQSYPSQDKPLPPPPPGSLSRTQEPSLGKQKVFIIRKSLLDELMEVQHFRTIYHMFIAGLCVFIISTLAIDFIDEGRLLLEFDLLIFSFGQLPLALVTWVPMFLSTLLAPYQALRLWARGTWTQATGLGCALLAAHAVVLCALPVHVAVEHQLPPASRCVLVFEQVRFLMKSYSFLREAVPGTLRARRGEGIQAPSFSSYLYFLFCPTLIYRETYPRTPYVRWNYVAKNFAQALGCVLYACFILGRLCVPVFANMSREPFSTRALVLSILHATLPGIFMLLLIFFAFLHCWLNAFAEMLRFGDRMFYRDWWNSTSFSNYYRTWNVVVHDWLYSYVYQDGLRLLGARARGVAMLGVFLVSAVAHEYIFCFVLGFFYPVMLILFLVIGGMLNFMMHDQRTGPAWNVLMWTMLFLGQGIQVSLYCQEWYARRHCPLPQATFWGLVTPRSWSCHT

> <PDB ID(s) of Target Chain>


> <UniProt (SwissProt) Recommended Name of Target Chain>
Sterol O-acyltransferase 2

> <UniProt (SwissProt) Entry Name of Target Chain>
ACAT-2

> <UniProt (SwissProt) Primary ID of Target Chain>
O75908

> <UniProt (SwissProt) Secondary ID(s) of Target Chain>
F5H7W4 I6L9H9 Q4VB99 Q4VBA1 Q96TD4 Q9UNR2

> <UniProt (SwissProt) Alternative ID(s) of Target Chain>


> <UniProt (TrEMBL) Submitted Name of Target Chain>


> <UniProt (TrEMBL) Entry Name of Target Chain>


> <UniProt (TrEMBL) Primary ID of Target Chain>


> <UniProt (TrEMBL) Secondary ID(s) of Target Chain>


> <UniProt (TrEMBL) Alternative ID(s) of Target Chain>


$$$$

  SciTegic09261414532D

 36 40  0  0  0  0            999 V2000
   10.5375   -1.8919    0.0000 C   0  0
   10.5573   -2.7168    0.0000 C   0  0
    9.8140   -1.4954    0.0000 O   0  0
   11.2413   -1.4637    0.0000 O   0  0
    9.8535   -3.1451    0.0000 C   0  0  1  0  0  0
    9.1299   -2.7485    0.0000 C   0  0
    8.4261   -3.1769    0.0000 C   0  0
    8.4459   -4.0016    0.0000 C   0  0  1  0  0  0
    9.1694   -4.3982    0.0000 C   0  0
    9.8732   -3.9699    0.0000 C   0  0
    7.7421   -4.4299    0.0000 C   0  0
    7.0185   -4.0334    0.0000 C   0  0
    6.3148   -4.4617    0.0000 C   0  0
    6.3345   -5.2866    0.0000 C   0  0
    7.0580   -5.6831    0.0000 C   0  0
    7.7618   -5.2548    0.0000 C   0  0
    3.4798   -5.3500    0.0000 O   0  0
    4.2034   -5.7466    0.0000 C   0  0
    4.2231   -6.5714    0.0000 C   0  0
    3.5193   -6.9996    0.0000 N   0  0
    2.7958   -6.6031    0.0000 C   0  0
    2.7760   -5.7783    0.0000 C   0  0
    4.9466   -6.9680    0.0000 C   0  0
    5.6504   -6.5396    0.0000 C   0  0
    5.6306   -5.7148    0.0000 C   0  0
    4.9072   -5.3183    0.0000 C   0  0
    3.5391   -7.8245    0.0000 C   0  0
    2.8353   -8.2528    0.0000 N   0  0
    4.2604   -8.2175    0.0000 O   0  0
    2.8528   -9.0741    0.0000 C   0  0
    2.1490   -9.5024    0.0000 C   0  0
    2.1688  -10.3272    0.0000 C   0  0
    2.8901  -10.7202    0.0000 C   0  0
    3.5939  -10.2919    0.0000 C   0  0
    3.5764   -9.4707    0.0000 C   0  0
    2.0530   -5.3832    0.0000 C   0  0
  1  2  1  0
  1  3  2  0
  1  4  1  0
  5  6  1  0
  6  7  1  0
  7  8  1  0
  8  9  1  0
  9 10  1  0
  5 10  1  0
 11 12  1  0
 12 13  2  0
 13 14  1  0
 14 15  2  0
 15 16  1  0
 11 16  2  0
 17 18  1  0
 18 19  1  0
 19 20  1  0
 20 21  1  0
 21 22  1  0
 17 22  1  0
 23 24  1  0
 24 25  2  0
 25 26  1  0
 18 26  2  0
 19 23  2  0
 27 28  1  0
 27 29  2  0
 30 31  1  0
 31 32  2  0
 32 33  1  0
 33 34  2  0
 34 35  1  0
 30 35  2  0
 28 30  1  0
 20 27  1  0
 14 25  1  0
  8 11  1  1
  5  2  1  6
 22 36  1  0
M  END
> <From>
www.bindingDB.org

> <BindingDB Reactant_set_id>
50106403

> <Ligand InChI>
InChI=1S/C30H32N2O4/c1-20-19-32(30(35)31-26-5-3-2-4-6-26)27-16-15-25(18-28(27)36-20)24-13-11-23(12-14-24)22-9-7-21(8-10-22)17-29(33)34/h2-6,11-16,18,20-22H,7-10,17,19H2,1H3,(H,31,35)(H,33,34)/t20?,21-,22-

> <Ligand InChI Key>
NJUONLYAPKDMEZ-JTKSQVOZSA-N

> <BindingDB MonomerID>
50020047

> <BindingDB Ligand Name>
CHEMBL3287864

> <Target Name>
Sterol O-acyltransferase 2

> <Target Source Organism According to Curator or DataSource>


> <Ki (nM)>


> <IC50 (nM)>
 5000

> <Kd (nM)>


> <EC50 (nM)>


> <kon (M-1-s-1)>


> <koff (s-1)>


> <pH>


> <Temp (C)>


> <Curation/DataSource>
ChEMBL

> <Article DOI>
10.1021/ml400527n

> <BindingDB Entry DOI>
10.7270/Q2KS6T3C

> <PMID>
24900877

> <PubChem AID>


> <Patent Number>


> <Authors>
Zhou, G; Zorn, N; Ting, P; Aslanian, R; Lin, M; Cook, J; Lachowicz, J; Lin, A; Smith, M; Hwa, J; van Heek, M; Walker, S

> <Institution>
Merck Research Laboratories

> <Link to Ligand in BindingDB>
http://www.bindingdb.org/bind/chemsearch/marvin/MolStructure.jsp?monomerid=50020047

> <Link to Target in BindingDB>
http://www.bindingdb.org/jsp/dbsearch/PrimarySearch_ki.jsp?energyterm=kJ/mole&tag=pol&polymerid=7773&target=Sterol+O-acyltransferase+2&column=ki&startPg=0&Increment=50&submit=Search

> <Link to Ligand-Target Pair in BindingDB>
http://www.bindingdb.org/jsp/dbsearch/PrimarySearch_ki.jsp?energyterm=kJ/mole&tag=r21&monomerid=50020047&enzyme=Sterol+O-acyltransferase+2&column=ki&startPg=0&Increment=50&submit=Search

> <Ligand HET ID in PDB>


> <PDB ID(s) for Ligand-Target Complex>


> <PubChem CID>
58064480

> <PubChem SID>
103930970

> <ChEBI ID of Ligand>


> <ChEMBL ID of Ligand>
CHEMBL3287864

> <DrugBank ID of Ligand>


> <IUPHAR_GRAC ID of Ligand>


> <KEGG ID of Ligand>


> <ZINC ID of Ligand>
ZINC28231769

> <Number of Protein Chains in Target (>1 implies a multichain complex)>
1

> <BindingDB Target Chain Sequence>
MEPGGARLRLQRTEGLGGERERQPCGDGNTETHRAPDLVQWTRHMEAVKAQLLEQAQGQLRELLDRAMREAIQSYPSQDKPLPPPPPGSLSRTQEPSLGKQKVFIIRKSLLDELMEVQHFRTIYHMFIAGLCVFIISTLAIDFIDEGRLLLEFDLLIFSFGQLPLALVTWVPMFLSTLLAPYQALRLWARGTWTQATGLGCALLAAHAVVLCALPVHVAVEHQLPPASRCVLVFEQVRFLMKSYSFLREAVPGTLRARRGEGIQAPSFSSYLYFLFCPTLIYRETYPRTPYVRWNYVAKNFAQALGCVLYACFILGRLCVPVFANMSREPFSTRALVLSILHATLPGIFMLLLIFFAFLHCWLNAFAEMLRFGDRMFYRDWWNSTSFSNYYRTWNVVVHDWLYSYVYQDGLRLLGARARGVAMLGVFLVSAVAHEYIFCFVLGFFYPVMLILFLVIGGMLNFMMHDQRTGPAWNVLMWTMLFLGQGIQVSLYCQEWYARRHCPLPQATFWGLVTPRSWSCHT

> <PDB ID(s) of Target Chain>


> <UniProt (SwissProt) Recommended Name of Target Chain>
Sterol O-acyltransferase 2

> <UniProt (SwissProt) Entry Name of Target Chain>
ACAT-2

> <UniProt (SwissProt) Primary ID of Target Chain>
O75908

> <UniProt (SwissProt) Secondary ID(s) of Target Chain>
F5H7W4 I6L9H9 Q4VB99 Q4VBA1 Q96TD4 Q9UNR2

> <UniProt (SwissProt) Alternative ID(s) of Target Chain>


> <UniProt (TrEMBL) Submitted Name of Target Chain>


> <UniProt (TrEMBL) Entry Name of Target Chain>


> <UniProt (TrEMBL) Primary ID of Target Chain>


> <UniProt (TrEMBL) Secondary ID(s) of Target Chain>


> <UniProt (TrEMBL) Alternative ID(s) of Target Chain>


$$$$

     RDKit          2D

 24 24  0  0  0  0  0  0  0  0999 V2000
   37.2819   -4.5338    0.0000 N   0  0  0  0  0  0  0  0  0  0  0  0
   37.2819   -5.3592    0.0000 C   0  0  0  0  0  0  0  0  0  0  0  0
   37.9949   -5.7699    0.0000 C   0  0  0  0  0  0  0  0  0  0  0  0
   38.7079   -5.3592    0.0000 N   0  0  0  0  0  0  0  0  0  0  0  0
   38.7079   -4.5338    0.0000 C   0  0  0  0  0  0  0  0  0  0  0  0
   37.9949   -4.1189    0.0000 C   0  0  0  0  0  0  0  0  0  0  0  0
   37.9949   -6.5953    0.0000 O   0  0  0  0  0  0  0  0  0  0  0  0
   37.9949   -3.2935    0.0000 O   0  0  0  0  0  0  0  0  0  0  0  0
   39.4245   -4.1251    0.0000 C   0  0  0  0  0  0  0  0  0  0  0  0
   40.1387   -4.5379    0.0000 C   0  0  0  0  0  0  0  0  0  0  0  0
   40.8553   -4.1293    0.0000 C   0  0  0  0  0  0  0  0  0  0  0  0
   40.1363   -5.3633    0.0000 C   0  0  0  0  0  0  0  0  0  0  0  0
   41.5653   -4.5421    0.0000 Cl  0  0  0  0  0  0  0  0  0  0  0  0
   40.8577   -3.3039    0.0000 Cl  0  0  0  0  0  0  0  0  0  0  0  0
   41.5626   -3.7082    0.0000 Cl  0  0  0  0  0  0  0  0  0  0  0  0
   36.5672   -5.7750    0.0000 C   0  0  0  0  0  0  0  0  0  0  0  0
   35.8512   -5.3612    0.0000 C   0  0  0  0  0  0  0  0  0  0  0  0
   35.1404   -5.7771    0.0000 C   0  0  0  0  0  0  0  0  0  0  0  0
   35.8500   -4.5358    0.0000 C   0  0  0  0  0  0  0  0  0  0  0  0
   34.4244   -5.3633    0.0000 Cl  0  0  0  0  0  0  0  0  0  0  0  0
   35.1416   -6.6025    0.0000 Cl  0  0  0  0  0  0  0  0  0  0  0  0
   34.4198   -6.1805    0.0000 Cl  0  0  0  0  0  0  0  0  0  0  0  0
   36.5700   -4.1242    0.0000 C   0  0  0  0  0  0  0  0  0  0  0  0
   39.4189   -5.7702    0.0000 C   0  0  0  0  0  0  0  0  0  0  0  0
  1  2  1  0
  1  6  1  0
  2  3  1  0
  3  4  1  0
  4  5  1  0
  5  6  1  0
  3  7  2  0
  6  8  2  0
  5  9  1  6
  9 10  1  0
 10 11  1  0
 10 12  1  1
 11 13  1  0
 11 14  1  0
 11 15  1  0
  2 16  1  6
 16 17  1  0
 17 18  1  0
 17 19  1  1
 18 20  1  0
 18 21  1  0
 18 22  1  0
  1 23  1  0
  4 24  1  0
M  END
> <From>
www.bindingDB.org

> <BindingDB Reactant_set_id>
51125435

> <Ligand InChI>
InChI=1S/C14H20Cl6N2O2/c1-7(13(15,16)17)5-9-11(23)22(4)10(12(24)21(9)3)6-8(2)14(18,19)20/h7-10H,5-6H2,1-4H3/t7-,8-,9-,10-/m0/s1

> <Ligand InChI Key>
FAXNAEOPEXUENY-XKNYDFJKSA-N

> <BindingDB MonomerID>
50461448

> <BindingDB Ligand Name>
CHEMBL4227559

> <Target Name>
Sterol O-acyltransferase 2

> <Target Source Organism According to Curator or DataSource>


> <Ki (nM)>


> <IC50 (nM)>
 5300

> <Kd (nM)>


> <EC50 (nM)>


> <kon (M-1-s-1)>


> <koff (s-1)>


> <pH>


> <Temp (C)>


> <Curation/DataSource>
ChEMBL

> <Article DOI>
10.1016/j.bmcl.2018.03.077

> <BindingDB Entry DOI>
10.7270/Q25Q4ZRC

> <PMID>
29631961

> <PubChem AID>


> <Patent Number>


> <Authors>
Kapojos, MM; Abdjul, DB; Yamazaki, H; Ohshiro, T; Rotinsulu, H; Wewengkang, DS; Sumilat, DA; Tomoda, H; Namikoshi, M; Uchida, R

> <Institution>
Tohoku Medical and Pharmaceutical University

> <Link to Ligand in BindingDB>
http://www.bindingdb.org/bind/chemsearch/marvin/MolStructure.jsp?monomerid=50461448

> <Link to Target in BindingDB>
http://www.bindingdb.org/jsp/dbsearch/PrimarySearch_ki.jsp?energyterm=kJ/mole&tag=pol&polymerid=50007205&target=Sterol+O-acyltransferase+2&column=ki&startPg=0&Increment=50&submit=Search

> <Link to Ligand-Target Pair in BindingDB>
http://www.bindingdb.org/jsp/dbsearch/PrimarySearch_ki.jsp?energyterm=kJ/mole&tag=r21&monomerid=50461448&enzyme=Sterol+O-acyltransferase+2&column=ki&startPg=0&Increment=50&submit=Search

> <Ligand HET ID in PDB>


> <PDB ID(s) for Ligand-Target Complex>


> <PubChem CID>
45140270

> <PubChem SID>
433928713

> <ChEBI ID of Ligand>


> <ChEMBL ID of Ligand>


> <DrugBank ID of Ligand>


> <IUPHAR_GRAC ID of Ligand>


> <KEGG ID of Ligand>


> <ZINC ID of Ligand>


> <Number of Protein Chains in Target (>1 implies a multichain complex)>
1

> <BindingDB Target Chain Sequence>
MEPGGARLRLQRTEGPGGEREHQPCRDGNTETHRAPDLVKWTRHMEAVKAQLLEQAQGQLRELLDRAMWEAIQSYPSQDKPPPLPPPDSLSRTQEPSLGKQKVFIIRKSLLDELMEVQHFRTIYHMFIAGLCVFIISTLAIDFIDEGRLLLEFDLLIFSFGQLPLALVTWVPMFLSTLLAPYQALRLWARPGARGTWTLGAGLGCALLAAHALVLCALPVHVAVEHQLPPASRCVLVFEQVRFLMKSYSFLREAVPGTLRARRGEGIQAPSFSSYLYFLFCPTLIYRETYPRTPYIRWNYVAKNFAQALGCVLYACFILGRLCVPVFANMSREPFSTRALVLSILHATLPGIFMLLLIFFAFLHCWLNAFAEMLRFGDRMFYRDWWNSTSFSNYYRTWNVVVHDWLYSYVYQDGLWLLGAQARGVAMLGVFLVSAVAHEYIFCFVLGFFYPVMLILFLVIGGMLNFMMHDQHTGPAWNVLMWTMLFLGQGIQVSLYCQEWYARRHCPLPQTTFWGLVTPRSWSCHT

> <PDB ID(s) of Target Chain>


> <UniProt (SwissProt) Recommended Name of Target Chain>
Sterol O-acyltransferase 2

> <UniProt (SwissProt) Entry Name of Target Chain>
ACAT-2

> <UniProt (SwissProt) Primary ID of Target Chain>
O77759

> <UniProt (SwissProt) Secondary ID(s) of Target Chain>


> <UniProt (SwissProt) Alternative ID(s) of Target Chain>


> <UniProt (TrEMBL) Submitted Name of Target Chain>


> <UniProt (TrEMBL) Entry Name of Target Chain>


> <UniProt (TrEMBL) Primary ID of Target Chain>


> <UniProt (TrEMBL) Secondary ID(s) of Target Chain>


> <UniProt (TrEMBL) Alternative ID(s) of Target Chain>


$$$$

  SciTegic12211709022D

 26 29  0  0  0  0            999 V2000
    9.1583  -22.0394    0.0000 C   0  0  2  0  0  0
    9.9466  -21.8248    0.0000 C   0  0
   10.1538  -21.0392    0.0000 C   0  0  1  0  0  0
    9.5758  -20.4626    0.0000 C   0  0
    8.7875  -20.6772    0.0000 C   0  0  2  0  0  0
    8.5772  -21.4684    0.0000 O   0  0
    6.9653  -22.2994    0.0000 C   0  0
    6.9642  -23.1189    0.0000 C   0  0
    7.6722  -23.5279    0.0000 C   0  0
    7.6705  -21.8905    0.0000 C   0  0
    8.3791  -22.2958    0.0000 C   0  0
    8.3793  -23.1190    0.0000 C   0  0
    9.1623  -23.3731    0.0000 N   0  0
    9.6460  -22.7070    0.0000 C   0  0
   10.4632  -22.7067    0.0000 O   0  0
    8.2079  -20.1011    0.0000 C   0  0
    7.4192  -20.3150    0.0000 C   0  0
    6.8396  -19.7389    0.0000 C   0  0
   10.9425  -20.8256    0.0000 N   0  0
   11.5219  -21.4019    0.0000 C   0  0
   12.3107  -21.1883    0.0000 C   0  0
   12.8871  -21.7645    0.0000 C   0  0
   13.6753  -21.5514    0.0000 C   0  0
   13.8854  -20.7608    0.0000 C   0  0
   13.3012  -20.1834    0.0000 C   0  0
   12.5152  -20.3994    0.0000 C   0  0
  1  2  1  0
  1  6  1  0
  2  3  1  0
  3  4  1  0
  4  5  1  0
  5  6  1  0
  7  8  2  0
  8  9  1  0
  9 12  2  0
 11 10  2  0
 10  7  1  0
 11 12  1  0
 12 13  1  0
 13 14  1  0
 14  1  1  0
  1 11  1  1
 14 15  2  0
  5 16  1  6
 16 17  1  0
 17 18  1  0
  3 19  1  1
 19 20  1  0
 20 21  1  0
 21 22  2  0
 22 23  1  0
 23 24  2  0
 24 25  1  0
 25 26  2  0
 26 21  1  0
M  END
> <From>
www.bindingDB.org

> <BindingDB Reactant_set_id>
50533739

> <Ligand InChI>
InChI=1S/C22H26N2O2/c1-2-8-18-13-17(23-15-16-9-4-3-5-10-16)14-22(26-18)19-11-6-7-12-20(19)24-21(22)25/h3-7,9-12,17-18,23H,2,8,13-15H2,1H3,(H,24,25)/t17-,18-,22+/m1/s1

> <Ligand InChI Key>
SEMJYLPIAVZGGE-HMFYCAOWSA-N

> <BindingDB MonomerID>
50204550

> <BindingDB Ligand Name>
CHEMBL3916935

> <Target Name>
Sterol O-acyltransferase 2

> <Target Source Organism According to Curator or DataSource>


> <Ki (nM)>


> <IC50 (nM)>
 6800

> <Kd (nM)>


> <EC50 (nM)>


> <kon (M-1-s-1)>


> <koff (s-1)>


> <pH>


> <Temp (C)>


> <Curation/DataSource>
ChEMBL

> <Article DOI>
10.1016/j.bmcl.2016.11.008

> <BindingDB Entry DOI>
10.7270/Q2D220KD

> <PMID>
27876317

> <PubChem AID>


> <Patent Number>


> <Authors>
Kobayashi, K; Ohshiro, T; Tomoda, H; Yin, F; Cui, HL; Chouthaiwale, PV; Tanaka, F

> <Institution>
Kitasato University

> <Link to Ligand in BindingDB>
http://www.bindingdb.org/bind/chemsearch/marvin/MolStructure.jsp?monomerid=50204550

> <Link to Target in BindingDB>
http://www.bindingdb.org/jsp/dbsearch/PrimarySearch_ki.jsp?energyterm=kJ/mole&tag=pol&polymerid=50007205&target=Sterol+O-acyltransferase+2&column=ki&startPg=0&Increment=50&submit=Search

> <Link to Ligand-Target Pair in BindingDB>
http://www.bindingdb.org/jsp/dbsearch/PrimarySearch_ki.jsp?energyterm=kJ/mole&tag=r21&monomerid=50204550&enzyme=Sterol+O-acyltransferase+2&column=ki&startPg=0&Increment=50&submit=Search

> <Ligand HET ID in PDB>


> <PDB ID(s) for Ligand-Target Complex>


> <PubChem CID>
73670238

> <PubChem SID>
375980539

> <ChEBI ID of Ligand>


> <ChEMBL ID of Ligand>
CHEMBL3916935

> <DrugBank ID of Ligand>


> <IUPHAR_GRAC ID of Ligand>


> <KEGG ID of Ligand>


> <ZINC ID of Ligand>


> <Number of Protein Chains in Target (>1 implies a multichain complex)>
1

> <BindingDB Target Chain Sequence>
MEPGGARLRLQRTEGPGGEREHQPCRDGNTETHRAPDLVKWTRHMEAVKAQLLEQAQGQLRELLDRAMWEAIQSYPSQDKPPPLPPPDSLSRTQEPSLGKQKVFIIRKSLLDELMEVQHFRTIYHMFIAGLCVFIISTLAIDFIDEGRLLLEFDLLIFSFGQLPLALVTWVPMFLSTLLAPYQALRLWARPGARGTWTLGAGLGCALLAAHALVLCALPVHVAVEHQLPPASRCVLVFEQVRFLMKSYSFLREAVPGTLRARRGEGIQAPSFSSYLYFLFCPTLIYRETYPRTPYIRWNYVAKNFAQALGCVLYACFILGRLCVPVFANMSREPFSTRALVLSILHATLPGIFMLLLIFFAFLHCWLNAFAEMLRFGDRMFYRDWWNSTSFSNYYRTWNVVVHDWLYSYVYQDGLWLLGAQARGVAMLGVFLVSAVAHEYIFCFVLGFFYPVMLILFLVIGGMLNFMMHDQHTGPAWNVLMWTMLFLGQGIQVSLYCQEWYARRHCPLPQTTFWGLVTPRSWSCHT

> <PDB ID(s) of Target Chain>


> <UniProt (SwissProt) Recommended Name of Target Chain>
Sterol O-acyltransferase 2

> <UniProt (SwissProt) Entry Name of Target Chain>
ACAT-2

> <UniProt (SwissProt) Primary ID of Target Chain>
O77759

> <UniProt (SwissProt) Secondary ID(s) of Target Chain>


> <UniProt (SwissProt) Alternative ID(s) of Target Chain>


> <UniProt (TrEMBL) Submitted Name of Target Chain>


> <UniProt (TrEMBL) Entry Name of Target Chain>


> <UniProt (TrEMBL) Primary ID of Target Chain>


> <UniProt (TrEMBL) Secondary ID(s) of Target Chain>


> <UniProt (TrEMBL) Alternative ID(s) of Target Chain>


$$$$

  Mrv0541 11211416102D          

 53 57  0  0  1  0            999 V2000
    1.7479    0.2205    0.0000 O   0  0  0  0  0  0  0  0  0  0  0  0
    2.4137    0.7074    0.0000 C   0  0  1  0  0  0  0  0  0  0  0  0
    1.0779    0.7074    0.0000 C   0  0  1  0  0  0  0  0  0  0  0  0
    2.1599    1.4857    0.0000 C   0  0  1  0  0  0  0  0  0  0  0  0
    1.3359    1.4857    0.0000 C   0  0  1  0  0  0  0  0  0  0  0  0
    3.2003    0.4494    0.0000 C   0  0  0  0  0  0  0  0  0  0  0  0
    0.2996    0.4494    0.0000 C   0  0  0  0  0  0  0  0  0  0  0  0
    6.5961    1.5980    0.0000 C   0  0  0  0  0  0  0  0  0  0  0  0
   -3.1087    1.5938    0.0000 C   0  0  0  0  0  0  0  0  0  0  0  0
   -2.0558   -0.3121    0.0000 O   0  0  0  0  0  0  0  0  0  0  0  0
    5.5474   -0.3121    0.0000 O   0  0  0  0  0  0  0  0  0  0  0  0
    4.7609   -0.0541    0.0000 C   0  0  0  0  0  0  0  0  0  0  0  0
   -1.2692   -0.0541    0.0000 C   0  0  0  0  0  0  0  0  0  0  0  0
    3.3626   -0.3538    0.0000 C   0  0  0  0  0  0  0  0  0  0  0  0
    0.1290   -0.3538    0.0000 C   0  0  0  0  0  0  0  0  0  0  0  0
    7.3827    1.3442    0.0000 C   0  0  0  0  0  0  0  0  0  0  0  0
   -3.8910    1.3317    0.0000 C   0  0  0  0  0  0  0  0  0  0  0  0
   -0.6492   -0.6035    0.0000 C   0  0  0  0  0  0  0  0  0  0  0  0
    4.1491   -0.6035    0.0000 C   0  0  0  0  0  0  0  0  0  0  0  0
    6.1550    0.2455    0.0000 C   0  0  0  0  0  0  0  0  0  0  0  0
   -2.6675    0.2372    0.0000 C   0  0  0  0  0  0  0  0  0  0  0  0
    5.9844    1.0445    0.0000 C   0  0  0  0  0  0  0  0  0  0  0  0
   -2.4969    1.0445    0.0000 C   0  0  0  0  0  0  0  0  0  0  0  0
   -4.5153    1.8810    0.0000 C   0  0  0  0  0  0  0  0  0  0  0  0
    7.9902    1.8935    0.0000 C   0  0  0  0  0  0  0  0  0  0  0  0
    7.8196    2.7050    0.0000 C   0  0  0  0  0  0  0  0  0  0  0  0
   -4.3405    2.6925    0.0000 C   0  0  0  0  0  0  0  0  0  0  0  0
   -0.3121    1.0071    0.0000 C   0  0  0  0  0  0  0  0  0  0  0  0
    3.7995    1.0071    0.0000 C   0  0  0  0  0  0  0  0  0  0  0  0
   -2.9422    2.3971    0.0000 C   0  0  0  0  0  0  0  0  0  0  0  0
    6.4213    2.3971    0.0000 C   0  0  0  0  0  0  0  0  0  0  0  0
    4.5861    0.7574    0.0000 C   0  0  0  0  0  0  0  0  0  0  0  0
   -1.0987    0.7491    0.0000 C   0  0  0  0  0  0  0  0  0  0  0  0
   -3.5581    2.9547    0.0000 C   0  0  0  0  0  0  0  0  0  0  0  0
    7.0289    2.9547    0.0000 C   0  0  0  0  0  0  0  0  0  0  0  0
   -1.7187    1.2984    0.0000 O   0  0  0  0  0  0  0  0  0  0  0  0
    5.1978    1.2984    0.0000 O   0  0  0  0  0  0  0  0  0  0  0  0
    4.3239   -1.4108    0.0000 O   0  0  0  0  0  0  0  0  0  0  0  0
   -0.8198   -1.4150    0.0000 O   0  0  0  0  0  0  0  0  0  0  0  0
    8.7685    1.6438    0.0000 O   0  0  0  0  0  0  0  0  0  0  0  0
   -5.2893    1.6188    0.0000 O   0  0  0  0  0  0  0  0  0  0  0  0
   -4.9647    3.2418    0.0000 O   0  0  0  0  0  0  0  0  0  0  0  0
    8.4314    3.2543    0.0000 O   0  0  0  0  0  0  0  0  0  0  0  0
    0.8490    2.1557    0.0000 C   0  0  0  0  0  0  0  0  0  0  0  0
    2.6385    2.1557    0.0000 C   0  0  0  0  0  0  0  0  0  0  0  0
   -3.4458   -0.0167    0.0000 C   0  0  0  0  0  0  0  0  0  0  0  0
    6.9415   -0.0125    0.0000 C   0  0  0  0  0  0  0  0  0  0  0  0
   -1.6188   -1.6272    0.0000 C   0  0  0  0  0  0  0  0  0  0  0  0
    5.1062   -1.6647    0.0000 C   0  0  0  0  0  0  0  0  0  0  0  0
    9.3802    2.1931    0.0000 C   0  0  0  0  0  0  0  0  0  0  0  0
   -5.4641    0.8115    0.0000 C   0  0  0  0  0  0  0  0  0  0  0  0
    8.2566    4.0575    0.0000 C   0  0  0  0  0  0  0  0  0  0  0  0
   -4.7442    3.9951    0.0000 C   0  0  0  0  0  0  0  0  0  0  0  0
  2  1  1  0  0  0  0
  3  1  1  0  0  0  0
  4  2  1  0  0  0  0
  5  3  1  0  0  0  0
  2  6  1  1  0  0  0
  3  7  1  6  0  0  0
  8 22  1  0  0  0  0
  9 23  1  0  0  0  0
 10 13  1  0  0  0  0
 11 12  1  0  0  0  0
 12 32  1  0  0  0  0
 13 33  1  0  0  0  0
 14  6  2  0  0  0  0
 15  7  2  0  0  0  0
 16  8  2  0  0  0  0
 17  9  2  0  0  0  0
 18 15  1  0  0  0  0
 19 14  1  0  0  0  0
 20 11  1  0  0  0  0
 21 10  1  0  0  0  0
 22 20  1  0  0  0  0
 23 21  1  0  0  0  0
 24 17  1  0  0  0  0
 25 16  1  0  0  0  0
 26 35  1  0  0  0  0
 27 34  1  0  0  0  0
 28  7  1  0  0  0  0
 29  6  1  0  0  0  0
 30  9  1  0  0  0  0
 31  8  1  0  0  0  0
 32 29  2  0  0  0  0
 33 28  2  0  0  0  0
 34 30  2  0  0  0  0
 35 31  2  0  0  0  0
 36 23  1  0  0  0  0
 37 22  1  0  0  0  0
 38 19  1  0  0  0  0
 39 18  1  0  0  0  0
 40 25  1  0  0  0  0
 41 24  1  0  0  0  0
 42 27  1  0  0  0  0
 43 26  1  0  0  0  0
  5 44  1  6  0  0  0
  4 45  1  1  0  0  0
 46 21  1  0  0  0  0
 47 20  1  0  0  0  0
 48 39  1  0  0  0  0
 49 38  1  0  0  0  0
 50 40  1  0  0  0  0
 51 41  1  0  0  0  0
 52 43  1  0  0  0  0
 53 42  1  0  0  0  0
  4  5  1  0  0  0  0
 13 18  2  0  0  0  0
 12 19  2  0  0  0  0
 27 24  2  0  0  0  0
 25 26  2  0  0  0  0
M  END
> <From>
www.bindingDB.org

> <BindingDB Reactant_set_id>
50290225

> <Ligand InChI>
InChI=1S/C42H52O11/c1-23-24(2)42(30-14-18-34(38(22-30)50-10)52-26(4)40(44)28-12-16-32(46-6)36(20-28)48-8)53-41(23)29-13-17-33(37(21-29)49-9)51-25(3)39(43)27-11-15-31(45-5)35(19-27)47-7/h11-26,39-44H,1-10H3/t23-,24-,25?,26?,39?,40?,41+,42+/m1/s1

> <Ligand InChI Key>
ZGXXNVOBEIRACL-JAWLWFRMSA-N

> <BindingDB MonomerID>
50147176

> <BindingDB Ligand Name>
1-(3,4-Dimethoxy-phenyl)-2-[4-((2S,3R,4R,5S)-5-{4-[2-(3,4-dimethoxy-phenyl)-2-hydroxy-1-methyl-ethoxy]-3-methoxy-phenyl}-3,4-dimethyl-tetrahydro-furan-2-yl)-2-methoxy-phenoxy]-propan-1-ol::CHEMBL316331

> <Target Name>
Sterol O-acyltransferase 2

> <Target Source Organism According to Curator or DataSource>


> <Ki (nM)>


> <IC50 (nM)>
 8000

> <Kd (nM)>


> <EC50 (nM)>


> <kon (M-1-s-1)>


> <koff (s-1)>


> <pH>


> <Temp (C)>


> <Curation/DataSource>
ChEMBL

> <Article DOI>
10.1016/j.bmcl.2004.10.066

> <BindingDB Entry DOI>
10.7270/Q2VQ3268

> <PMID>
15603959

> <PubChem AID>


> <Patent Number>


> <Authors>
Jeong, TS; Kim, KS; Yu, H; Kim, MJ; Cho, KH; Choi, YK; Kim, HC; Park, HY; Lee, WS

> <Institution>
Korea Research Institute of Bioscience and Biotechnology

> <Link to Ligand in BindingDB>
http://www.bindingdb.org/bind/chemsearch/marvin/MolStructure.jsp?monomerid=50147176

> <Link to Target in BindingDB>
http://www.bindingdb.org/jsp/dbsearch/PrimarySearch_ki.jsp?energyterm=kJ/mole&tag=pol&polymerid=7773&target=Sterol+O-acyltransferase+2&column=ki&startPg=0&Increment=50&submit=Search

> <Link to Ligand-Target Pair in BindingDB>
http://www.bindingdb.org/jsp/dbsearch/PrimarySearch_ki.jsp?energyterm=kJ/mole&tag=r21&monomerid=50147176&enzyme=Sterol+O-acyltransferase+2&column=ki&startPg=0&Increment=50&submit=Search

> <Ligand HET ID in PDB>


> <PDB ID(s) for Ligand-Target Complex>


> <PubChem CID>
44336126

> <PubChem SID>
104035697

> <ChEBI ID of Ligand>


> <ChEMBL ID of Ligand>
CHEMBL316331

> <DrugBank ID of Ligand>


> <IUPHAR_GRAC ID of Ligand>


> <KEGG ID of Ligand>


> <ZINC ID of Ligand>
ZINC49683172

> <Number of Protein Chains in Target (>1 implies a multichain complex)>
1

> <BindingDB Target Chain Sequence>
MEPGGARLRLQRTEGLGGERERQPCGDGNTETHRAPDLVQWTRHMEAVKAQLLEQAQGQLRELLDRAMREAIQSYPSQDKPLPPPPPGSLSRTQEPSLGKQKVFIIRKSLLDELMEVQHFRTIYHMFIAGLCVFIISTLAIDFIDEGRLLLEFDLLIFSFGQLPLALVTWVPMFLSTLLAPYQALRLWARGTWTQATGLGCALLAAHAVVLCALPVHVAVEHQLPPASRCVLVFEQVRFLMKSYSFLREAVPGTLRARRGEGIQAPSFSSYLYFLFCPTLIYRETYPRTPYVRWNYVAKNFAQALGCVLYACFILGRLCVPVFANMSREPFSTRALVLSILHATLPGIFMLLLIFFAFLHCWLNAFAEMLRFGDRMFYRDWWNSTSFSNYYRTWNVVVHDWLYSYVYQDGLRLLGARARGVAMLGVFLVSAVAHEYIFCFVLGFFYPVMLILFLVIGGMLNFMMHDQRTGPAWNVLMWTMLFLGQGIQVSLYCQEWYARRHCPLPQATFWGLVTPRSWSCHT

> <PDB ID(s) of Target Chain>


> <UniProt (SwissProt) Recommended Name of Target Chain>
Sterol O-acyltransferase 2

> <UniProt (SwissProt) Entry Name of Target Chain>
ACAT-2

> <UniProt (SwissProt) Primary ID of Target Chain>
O75908

> <UniProt (SwissProt) Secondary ID(s) of Target Chain>
F5H7W4 I6L9H9 Q4VB99 Q4VBA1 Q96TD4 Q9UNR2

> <UniProt (SwissProt) Alternative ID(s) of Target Chain>


> <UniProt (TrEMBL) Submitted Name of Target Chain>


> <UniProt (TrEMBL) Entry Name of Target Chain>


> <UniProt (TrEMBL) Primary ID of Target Chain>


> <UniProt (TrEMBL) Secondary ID(s) of Target Chain>


> <UniProt (TrEMBL) Alternative ID(s) of Target Chain>


$$$$

  SciTegic12231723382D

 33 37  0  0  0  0            999 V2000
   10.6276  -10.1654    0.0000 C   0  0  2  0  0  0
   11.4159   -9.9507    0.0000 C   0  0
   11.6231   -9.1651    0.0000 C   0  0  1  0  0  0
   11.0451   -8.5886    0.0000 C   0  0
   10.2568   -8.8032    0.0000 C   0  0  2  0  0  0
   10.0465   -9.5943    0.0000 O   0  0
    8.4346  -10.4253    0.0000 C   0  0
    8.4335  -11.2449    0.0000 C   0  0
    9.1415  -11.6538    0.0000 C   0  0
    9.1397  -10.0165    0.0000 C   0  0
    9.8484  -10.4217    0.0000 C   0  0
    9.8486  -11.2449    0.0000 C   0  0
   10.6316  -11.4991    0.0000 N   0  0
   11.1153  -10.8329    0.0000 C   0  0
   11.9325  -10.8327    0.0000 O   0  0
    9.6772   -8.2271    0.0000 C   0  0
    8.8885   -8.4409    0.0000 C   0  0
    8.3089   -7.8648    0.0000 C   0  0
   12.4123   -8.9514    0.0000 N   0  0
   13.1062   -9.3802    0.0000 C   0  0
   10.8843  -12.2762    0.0000 C   0  0
   13.8258   -8.9930    0.0000 C   0  0
   14.5175   -9.4244    0.0000 C   0  0
   15.2366   -9.0378    0.0000 C   0  0
   15.2615   -8.2201    0.0000 C   0  0
   14.5614   -7.7906    0.0000 C   0  0
   13.8451   -8.1796    0.0000 C   0  0
   11.6837  -12.4459    0.0000 C   0  0
   11.9339  -13.2226    0.0000 C   0  0
   12.7324  -13.3924    0.0000 C   0  0
   13.2800  -12.7846    0.0000 C   0  0
   13.0235  -12.0043    0.0000 C   0  0
   12.2255  -11.8381    0.0000 C   0  0
  1  2  1  0
  1  6  1  0
  2  3  1  0
  3  4  1  0
  4  5  1  0
  5  6  1  0
  7  8  2  0
  8  9  1  0
  9 12  2  0
 11 10  2  0
 10  7  1  0
 11 12  1  0
 12 13  1  0
 13 14  1  0
 14  1  1  0
  1 11  1  1
 14 15  2  0
  5 16  1  6
 16 17  1  0
 17 18  1  0
  3 19  1  1
 19 20  1  0
 13 21  1  0
 20 22  1  0
 22 23  2  0
 23 24  1  0
 24 25  2  0
 25 26  1  0
 26 27  2  0
 27 22  1  0
 21 28  1  0
 28 29  2  0
 29 30  1  0
 30 31  2  0
 31 32  1  0
 32 33  2  0
 33 28  1  0
M  END
> <From>
www.bindingDB.org

> <BindingDB Reactant_set_id>
50533667

> <Ligand InChI>
InChI=1S/C29H32N2O2/c1-2-11-25-18-24(30-20-22-12-5-3-6-13-22)19-29(33-25)26-16-9-10-17-27(26)31(28(29)32)21-23-14-7-4-8-15-23/h3-10,12-17,24-25,30H,2,11,18-21H2,1H3/t24-,25-,29+/m1/s1

> <Ligand InChI Key>
SNUNOEILOVKZKM-MIHVYDCKSA-N

> <BindingDB MonomerID>
50204553

> <BindingDB Ligand Name>
CHEMBL3971022

> <Target Name>
Sterol O-acyltransferase 2

> <Target Source Organism According to Curator or DataSource>


> <Ki (nM)>


> <IC50 (nM)>
 9100

> <Kd (nM)>


> <EC50 (nM)>


> <kon (M-1-s-1)>


> <koff (s-1)>


> <pH>


> <Temp (C)>


> <Curation/DataSource>
ChEMBL

> <Article DOI>
10.1016/j.bmcl.2016.11.008

> <BindingDB Entry DOI>
10.7270/Q2D220KD

> <PMID>
27876317

> <PubChem AID>


> <Patent Number>


> <Authors>
Kobayashi, K; Ohshiro, T; Tomoda, H; Yin, F; Cui, HL; Chouthaiwale, PV; Tanaka, F

> <Institution>
Kitasato University

> <Link to Ligand in BindingDB>
http://www.bindingdb.org/bind/chemsearch/marvin/MolStructure.jsp?monomerid=50204553

> <Link to Target in BindingDB>
http://www.bindingdb.org/jsp/dbsearch/PrimarySearch_ki.jsp?energyterm=kJ/mole&tag=pol&polymerid=50007205&target=Sterol+O-acyltransferase+2&column=ki&startPg=0&Increment=50&submit=Search

> <Link to Ligand-Target Pair in BindingDB>
http://www.bindingdb.org/jsp/dbsearch/PrimarySearch_ki.jsp?energyterm=kJ/mole&tag=r21&monomerid=50204553&enzyme=Sterol+O-acyltransferase+2&column=ki&startPg=0&Increment=50&submit=Search

> <Ligand HET ID in PDB>


> <PDB ID(s) for Ligand-Target Complex>


> <PubChem CID>
134153425

> <PubChem SID>
375980542

> <ChEBI ID of Ligand>


> <ChEMBL ID of Ligand>
CHEMBL3971022

> <DrugBank ID of Ligand>


> <IUPHAR_GRAC ID of Ligand>


> <KEGG ID of Ligand>


> <ZINC ID of Ligand>


> <Number of Protein Chains in Target (>1 implies a multichain complex)>
1

> <BindingDB Target Chain Sequence>
MEPGGARLRLQRTEGPGGEREHQPCRDGNTETHRAPDLVKWTRHMEAVKAQLLEQAQGQLRELLDRAMWEAIQSYPSQDKPPPLPPPDSLSRTQEPSLGKQKVFIIRKSLLDELMEVQHFRTIYHMFIAGLCVFIISTLAIDFIDEGRLLLEFDLLIFSFGQLPLALVTWVPMFLSTLLAPYQALRLWARPGARGTWTLGAGLGCALLAAHALVLCALPVHVAVEHQLPPASRCVLVFEQVRFLMKSYSFLREAVPGTLRARRGEGIQAPSFSSYLYFLFCPTLIYRETYPRTPYIRWNYVAKNFAQALGCVLYACFILGRLCVPVFANMSREPFSTRALVLSILHATLPGIFMLLLIFFAFLHCWLNAFAEMLRFGDRMFYRDWWNSTSFSNYYRTWNVVVHDWLYSYVYQDGLWLLGAQARGVAMLGVFLVSAVAHEYIFCFVLGFFYPVMLILFLVIGGMLNFMMHDQHTGPAWNVLMWTMLFLGQGIQVSLYCQEWYARRHCPLPQTTFWGLVTPRSWSCHT

> <PDB ID(s) of Target Chain>


> <UniProt (SwissProt) Recommended Name of Target Chain>
Sterol O-acyltransferase 2

> <UniProt (SwissProt) Entry Name of Target Chain>
ACAT-2

> <UniProt (SwissProt) Primary ID of Target Chain>
O77759

> <UniProt (SwissProt) Secondary ID(s) of Target Chain>


> <UniProt (SwissProt) Alternative ID(s) of Target Chain>


> <UniProt (TrEMBL) Submitted Name of Target Chain>


> <UniProt (TrEMBL) Entry Name of Target Chain>


> <UniProt (TrEMBL) Primary ID of Target Chain>


> <UniProt (TrEMBL) Secondary ID(s) of Target Chain>


> <UniProt (TrEMBL) Alternative ID(s) of Target Chain>


$$$$
 
  Mrv0541 11231401552D          

 35 36  0  0  0  0            999 V2000
   -5.1873   -0.9396    0.0000 C   0  0  0  0  0  0  0  0  0  0  0  0
   -5.1886   -0.1114    0.0000 C   0  0  0  0  0  0  0  0  0  0  0  0
   -4.4746    0.3040    0.0000 C   0  0  0  0  0  0  0  0  0  0  0  0
   -3.7542   -0.1120    0.0000 C   0  0  0  0  0  0  0  0  0  0  0  0
   -3.7573   -0.9436    0.0000 C   0  0  0  0  0  0  0  0  0  0  0  0
   -4.4766   -1.3503    0.0000 C   0  0  0  0  0  0  0  0  0  0  0  0
   -3.0428    0.3024    0.0000 O   0  0  0  0  0  0  0  0  0  0  0  0
   -4.4759    1.1295    0.0000 C   0  0  0  0  0  0  0  0  0  0  0  0
   -5.1921    1.5388    0.0000 C   0  0  0  0  0  0  0  0  0  0  0  0
   -3.7611    1.5411    0.0000 C   0  0  0  0  0  0  0  0  0  0  0  0
   -2.3277   -0.1133    0.0000 S   0  0  0  0  0  0  0  0  0  0  0  0
   -1.6192   -0.5290    0.0000 N   0  0  0  0  0  0  0  0  0  0  0  0
   -1.9088    0.6001    0.0000 O   0  0  0  0  0  0  0  0  0  0  0  0
   -2.7391   -0.8283    0.0000 O   0  0  0  0  0  0  0  0  0  0  0  0
   -0.8996   -0.1257    0.0000 C   0  0  0  0  0  0  0  0  0  0  0  0
   -0.1882   -0.5432    0.0000 C   0  0  0  0  0  0  0  0  0  0  0  0
   -0.8915    0.6999    0.0000 O   0  0  0  0  0  0  0  0  0  0  0  0
    0.5314   -0.1397    0.0000 C   0  0  0  0  0  0  0  0  0  0  0  0
    0.5346    0.6853    0.0000 C   0  0  0  0  0  0  0  0  0  0  0  0
    1.2533    1.0933    0.0000 C   0  0  0  0  0  0  0  0  0  0  0  0
    1.9612    0.6712    0.0000 C   0  0  0  0  0  0  0  0  0  0  0  0
    1.9504   -0.1585    0.0000 C   0  0  0  0  0  0  0  0  0  0  0  0
    1.2357   -0.5627    0.0000 C   0  0  0  0  0  0  0  0  0  0  0  0
    1.2238   -1.3882    0.0000 C   0  0  0  0  0  0  0  0  0  0  0  0
    1.9287   -1.8090    0.0000 C   0  0  0  0  0  0  0  0  0  0  0  0
    0.5023   -1.7883    0.0000 C   0  0  0  0  0  0  0  0  0  0  0  0
    2.6813    1.0737    0.0000 C   0  0  0  0  0  0  0  0  0  0  0  0
    2.6905    1.8992    0.0000 C   0  0  0  0  0  0  0  0  0  0  0  0
    3.3922    0.6552    0.0000 C   0  0  0  0  0  0  0  0  0  0  0  0
   -3.3523   -1.6510    0.0000 C   0  0  0  0  0  0  0  0  0  0  0  0
   -3.7634   -2.3662    0.0000 C   0  0  0  0  0  0  0  0  0  0  0  0
   -2.5267   -1.6518    0.0000 C   0  0  0  0  0  0  0  0  0  0  0  0
    0.3147    1.4868    0.0000 C   0  0  0  0  0  0  0  0  0  0  0  0
    0.8986    2.0732    0.0000 C   0  0  0  0  0  0  0  0  0  0  0  0
   -0.4788    1.6976    0.0000 C   0  0  0  0  0  0  0  0  0  0  0  0
 16 18  1  0  0  0  0
  8  9  1  0  0  0  0
 18 19  2  0  0  0  0
  4  5  2  0  0  0  0
 19 20  1  0  0  0  0
  8 10  1  0  0  0  0
 20 21  2  0  0  0  0
  2  3  2  0  0  0  0
 21 22  1  0  0  0  0
  7 11  1  0  0  0  0
 22 23  2  0  0  0  0
 23 18  1  0  0  0  0
  5  6  1  0  0  0  0
 23 24  1  0  0  0  0
 11 12  1  0  0  0  0
 24 25  1  0  0  0  0
  6  1  2  0  0  0  0
 24 26  1  0  0  0  0
 11 13  2  0  0  0  0
 21 27  1  0  0  0  0
  1  2  1  0  0  0  0
 27 28  1  0  0  0  0
 11 14  2  0  0  0  0
 27 29  1  0  0  0  0
  4  7  1  0  0  0  0
  5 30  1  0  0  0  0
 12 15  1  0  0  0  0
 30 31  1  0  0  0  0
  3  4  1  0  0  0  0
 30 32  1  0  0  0  0
 15 16  1  0  0  0  0
 19 33  1  0  0  0  0
  3  8  1  0  0  0  0
 33 34  1  0  0  0  0
 15 17  2  0  0  0  0
 33 35  1  0  0  0  0
M  END
> <From>
www.bindingDB.org

> <BindingDB Reactant_set_id>
51068069

> <Ligand InChI>
InChI=1S/C29H43NO4S/c1-17(2)22-14-25(20(7)8)27(26(15-22)21(9)10)16-28(31)30-35(32,33)34-29-23(18(3)4)12-11-13-24(29)19(5)6/h11-15,17-21H,16H2,1-10H3,(H,30,31)

> <Ligand InChI Key>
PTQXTEKSNBVPQJ-UHFFFAOYSA-N

> <BindingDB MonomerID>
50069900

> <BindingDB Ligand Name>
2,6-diisopropylphenyl 2-(2,4,6-triisopropylphenyl)acetylsulfamate::AVASIMIBE::CHEMBL101309::CI-1011::[2-(2,4,6-Triisopropyl-phenyl)-acetyl]-sulfamic acid 2,6-diisopropyl-phenyl ester

> <Target Name>
Sterol O-acyltransferase 2

> <Target Source Organism According to Curator or DataSource>


> <Ki (nM)>


> <IC50 (nM)>
 9200

> <Kd (nM)>


> <EC50 (nM)>


> <kon (M-1-s-1)>


> <koff (s-1)>


> <pH>


> <Temp (C)>


> <Curation/DataSource>
ChEMBL

> <Article DOI>
10.1016/j.bmc.2013.04.025

> <BindingDB Entry DOI>
10.7270/Q2PV6MR1

> <PMID>
23665143

> <PubChem AID>


> <Patent Number>


> <Authors>
Eguchi, K; Fujiwara, Y; Hayashida, A; Horlad, H; Kato, H; Rotinsulu, H; Losung, F; Mangindaan, RE; de Voogd, NJ; Takeya, M; Tsukamoto, S

> <Institution>
Kumamoto University

> <Link to Ligand in BindingDB>
http://www.bindingdb.org/bind/chemsearch/marvin/MolStructure.jsp?monomerid=50069900

> <Link to Target in BindingDB>
http://www.bindingdb.org/jsp/dbsearch/PrimarySearch_ki.jsp?energyterm=kJ/mole&tag=pol&polymerid=7773&target=Sterol+O-acyltransferase+2&column=ki&startPg=0&Increment=50&submit=Search

> <Link to Ligand-Target Pair in BindingDB>
http://www.bindingdb.org/jsp/dbsearch/PrimarySearch_ki.jsp?energyterm=kJ/mole&tag=r21&monomerid=50069900&enzyme=Sterol+O-acyltransferase+2&column=ki&startPg=0&Increment=50&submit=Search

> <Ligand HET ID in PDB>


> <PDB ID(s) for Ligand-Target Complex>


> <PubChem CID>
166558

> <PubChem SID>
103963862

> <ChEBI ID of Ligand>


> <ChEMBL ID of Ligand>
CHEMBL101309

> <DrugBank ID of Ligand>


> <IUPHAR_GRAC ID of Ligand>


> <KEGG ID of Ligand>


> <ZINC ID of Ligand>
ZINC01540245

> <Number of Protein Chains in Target (>1 implies a multichain complex)>
1

> <BindingDB Target Chain Sequence>
MEPGGARLRLQRTEGLGGERERQPCGDGNTETHRAPDLVQWTRHMEAVKAQLLEQAQGQLRELLDRAMREAIQSYPSQDKPLPPPPPGSLSRTQEPSLGKQKVFIIRKSLLDELMEVQHFRTIYHMFIAGLCVFIISTLAIDFIDEGRLLLEFDLLIFSFGQLPLALVTWVPMFLSTLLAPYQALRLWARGTWTQATGLGCALLAAHAVVLCALPVHVAVEHQLPPASRCVLVFEQVRFLMKSYSFLREAVPGTLRARRGEGIQAPSFSSYLYFLFCPTLIYRETYPRTPYVRWNYVAKNFAQALGCVLYACFILGRLCVPVFANMSREPFSTRALVLSILHATLPGIFMLLLIFFAFLHCWLNAFAEMLRFGDRMFYRDWWNSTSFSNYYRTWNVVVHDWLYSYVYQDGLRLLGARARGVAMLGVFLVSAVAHEYIFCFVLGFFYPVMLILFLVIGGMLNFMMHDQRTGPAWNVLMWTMLFLGQGIQVSLYCQEWYARRHCPLPQATFWGLVTPRSWSCHT

> <PDB ID(s) of Target Chain>


> <UniProt (SwissProt) Recommended Name of Target Chain>
Sterol O-acyltransferase 2

> <UniProt (SwissProt) Entry Name of Target Chain>
ACAT-2

> <UniProt (SwissProt) Primary ID of Target Chain>
O75908

> <UniProt (SwissProt) Secondary ID(s) of Target Chain>
F5H7W4 I6L9H9 Q4VB99 Q4VBA1 Q96TD4 Q9UNR2

> <UniProt (SwissProt) Alternative ID(s) of Target Chain>


> <UniProt (TrEMBL) Submitted Name of Target Chain>


> <UniProt (TrEMBL) Entry Name of Target Chain>


> <UniProt (TrEMBL) Primary ID of Target Chain>


> <UniProt (TrEMBL) Secondary ID(s) of Target Chain>


> <UniProt (TrEMBL) Alternative ID(s) of Target Chain>


$$$$

  SciTegic12201721022D

 21 23  0  0  0  0            999 V2000
    9.3440  -15.4317    0.0000 C   0  0  2  0  0  0
   10.1323  -15.2171    0.0000 C   0  0
   10.3395  -14.4315    0.0000 C   0  0
    9.7615  -13.8549    0.0000 C   0  0
    8.9732  -14.0695    0.0000 C   0  0  2  0  0  0
    8.7629  -14.8607    0.0000 O   0  0
    7.1511  -15.6917    0.0000 C   0  0
    7.1499  -16.5112    0.0000 C   0  0
    7.8580  -16.9202    0.0000 C   0  0
    7.8562  -15.2828    0.0000 C   0  0
    8.5648  -15.6881    0.0000 C   0  0
    8.5651  -16.5113    0.0000 C   0  0
    9.3480  -16.7654    0.0000 N   0  0
    9.8317  -16.0993    0.0000 C   0  0
   10.6489  -16.0990    0.0000 O   0  0
   11.1283  -14.2179    0.0000 O   0  0
    8.3936  -13.4934    0.0000 C   0  0
    7.6049  -13.7073    0.0000 C   0  0
    7.0253  -13.1312    0.0000 C   0  0
    7.8537  -14.4656    0.0000 Br  0  0
    9.6008  -17.5426    0.0000 C   0  0
  1  2  1  0
  1  6  1  0
  2  3  1  0
  3  4  1  0
  4  5  1  0
  5  6  1  0
  7  8  2  0
  8  9  1  0
  9 12  2  0
 11 10  2  0
 10  7  1  0
 11 12  1  0
 12 13  1  0
 13 14  1  0
 14  1  1  0
  1 11  1  1
 14 15  2  0
  3 16  2  0
  5 17  1  6
 17 18  1  0
 18 19  1  0
 10 20  1  0
 13 21  1  0
M  END
> <From>
www.bindingDB.org

> <BindingDB Reactant_set_id>
50533675

> <Ligand InChI>
InChI=1S/C16H18BrNO3/c1-3-5-11-8-10(19)9-16(21-11)14-12(17)6-4-7-13(14)18(2)15(16)20/h4,6-7,11H,3,5,8-9H2,1-2H3/t11-,16+/m1/s1

> <Ligand InChI Key>
BDTWMVDSGXDQBF-BZNIZROVSA-N

> <BindingDB MonomerID>
50204545

> <BindingDB Ligand Name>
CHEMBL3898917

> <Target Name>
Sterol O-acyltransferase 2

> <Target Source Organism According to Curator or DataSource>


> <Ki (nM)>


> <IC50 (nM)>
 9300

> <Kd (nM)>


> <EC50 (nM)>


> <kon (M-1-s-1)>


> <koff (s-1)>


> <pH>


> <Temp (C)>


> <Curation/DataSource>
ChEMBL

> <Article DOI>
10.1016/j.bmcl.2016.11.008

> <BindingDB Entry DOI>
10.7270/Q2D220KD

> <PMID>
27876317

> <PubChem AID>


> <Patent Number>


> <Authors>
Kobayashi, K; Ohshiro, T; Tomoda, H; Yin, F; Cui, HL; Chouthaiwale, PV; Tanaka, F

> <Institution>
Kitasato University

> <Link to Ligand in BindingDB>
http://www.bindingdb.org/bind/chemsearch/marvin/MolStructure.jsp?monomerid=50204545

> <Link to Target in BindingDB>
http://www.bindingdb.org/jsp/dbsearch/PrimarySearch_ki.jsp?energyterm=kJ/mole&tag=pol&polymerid=50007205&target=Sterol+O-acyltransferase+2&column=ki&startPg=0&Increment=50&submit=Search

> <Link to Ligand-Target Pair in BindingDB>
http://www.bindingdb.org/jsp/dbsearch/PrimarySearch_ki.jsp?energyterm=kJ/mole&tag=r21&monomerid=50204545&enzyme=Sterol+O-acyltransferase+2&column=ki&startPg=0&Increment=50&submit=Search

> <Ligand HET ID in PDB>


> <PDB ID(s) for Ligand-Target Complex>


> <PubChem CID>
134134061

> <PubChem SID>
375980536

> <ChEBI ID of Ligand>


> <ChEMBL ID of Ligand>
CHEMBL3898917

> <DrugBank ID of Ligand>


> <IUPHAR_GRAC ID of Ligand>


> <KEGG ID of Ligand>


> <ZINC ID of Ligand>


> <Number of Protein Chains in Target (>1 implies a multichain complex)>
1

> <BindingDB Target Chain Sequence>
MEPGGARLRLQRTEGPGGEREHQPCRDGNTETHRAPDLVKWTRHMEAVKAQLLEQAQGQLRELLDRAMWEAIQSYPSQDKPPPLPPPDSLSRTQEPSLGKQKVFIIRKSLLDELMEVQHFRTIYHMFIAGLCVFIISTLAIDFIDEGRLLLEFDLLIFSFGQLPLALVTWVPMFLSTLLAPYQALRLWARPGARGTWTLGAGLGCALLAAHALVLCALPVHVAVEHQLPPASRCVLVFEQVRFLMKSYSFLREAVPGTLRARRGEGIQAPSFSSYLYFLFCPTLIYRETYPRTPYIRWNYVAKNFAQALGCVLYACFILGRLCVPVFANMSREPFSTRALVLSILHATLPGIFMLLLIFFAFLHCWLNAFAEMLRFGDRMFYRDWWNSTSFSNYYRTWNVVVHDWLYSYVYQDGLWLLGAQARGVAMLGVFLVSAVAHEYIFCFVLGFFYPVMLILFLVIGGMLNFMMHDQHTGPAWNVLMWTMLFLGQGIQVSLYCQEWYARRHCPLPQTTFWGLVTPRSWSCHT

> <PDB ID(s) of Target Chain>


> <UniProt (SwissProt) Recommended Name of Target Chain>
Sterol O-acyltransferase 2

> <UniProt (SwissProt) Entry Name of Target Chain>
ACAT-2

> <UniProt (SwissProt) Primary ID of Target Chain>
O77759

> <UniProt (SwissProt) Secondary ID(s) of Target Chain>


> <UniProt (SwissProt) Alternative ID(s) of Target Chain>


> <UniProt (TrEMBL) Submitted Name of Target Chain>


> <UniProt (TrEMBL) Entry Name of Target Chain>


> <UniProt (TrEMBL) Primary ID of Target Chain>


> <UniProt (TrEMBL) Secondary ID(s) of Target Chain>


> <UniProt (TrEMBL) Alternative ID(s) of Target Chain>


$$$$

     RDKit          2D

 55 57  0  0  0  0  0  0  0  0999 V2000
    7.3300  -10.9784    0.0000 N   0  0  0  0  0  0  0  0  0  0  0  0
    8.0377  -10.5698    0.0000 C   0  0  0  0  0  0  0  0  0  0  0  0
    6.6222  -10.5698    0.0000 C   0  0  0  0  0  0  0  0  0  0  0  0
    5.9145  -10.9784    0.0000 C   0  0  0  0  0  0  0  0  0  0  0  0
    6.6222   -9.7526    0.0000 O   0  0  0  0  0  0  0  0  0  0  0  0
    5.2068  -10.5698    0.0000 C   0  0  0  0  0  0  0  0  0  0  0  0
    4.4991  -10.9784    0.0000 C   0  0  0  0  0  0  0  0  0  0  0  0
    8.7454  -10.9784    0.0000 C   0  0  0  0  0  0  0  0  0  0  0  0
    8.0377   -9.7526    0.0000 C   0  0  0  0  0  0  0  0  0  0  0  0
    8.7454   -9.3440    0.0000 C   0  0  0  0  0  0  0  0  0  0  0  0
    7.3300   -9.3440    0.0000 C   0  0  0  0  0  0  0  0  0  0  0  0
    8.7454  -11.7956    0.0000 O   0  0  0  0  0  0  0  0  0  0  0  0
    9.4531  -10.5698    0.0000 N   0  0  0  0  0  0  0  0  0  0  0  0
   10.1997  -10.8973    0.0000 C   0  0  0  0  0  0  0  0  0  0  0  0
   10.7465  -10.2900    0.0000 C   0  0  0  0  0  0  0  0  0  0  0  0
   10.3379   -9.5822    0.0000 C   0  0  0  0  0  0  0  0  0  0  0  0
    9.5386   -9.7522    0.0000 C   0  0  0  0  0  0  0  0  0  0  0  0
   10.1943  -11.7131    0.0000 C   0  0  0  0  0  0  0  0  0  0  0  0
    9.4838  -12.1169    0.0000 O   0  0  0  0  0  0  0  0  0  0  0  0
   10.8992  -12.1264    0.0000 N   0  0  0  0  0  0  0  0  0  0  0  0
   10.8938  -12.9435    0.0000 C   0  0  0  0  0  0  0  0  0  0  0  0
   11.6096  -11.7225    0.0000 C   0  0  0  0  0  0  0  0  0  0  0  0
   12.3146  -12.1358    0.0000 C   0  0  0  0  0  0  0  0  0  0  0  0
   11.6151  -10.9053    0.0000 C   0  0  0  0  0  0  0  0  0  0  0  0
   12.3255  -10.5015    0.0000 C   0  0  0  0  0  0  0  0  0  0  0  0
   13.0277  -10.9181    0.0000 C   0  0  0  0  0  0  0  0  0  0  0  0
   13.7376  -10.5149    0.0000 C   0  0  0  0  0  0  0  0  0  0  0  0
   13.7435   -9.6969    0.0000 C   0  0  0  0  0  0  0  0  0  0  0  0
   13.0335   -9.2837    0.0000 C   0  0  0  0  0  0  0  0  0  0  0  0
   12.3265   -9.6893    0.0000 C   0  0  0  0  0  0  0  0  0  0  0  0
   12.3092  -12.9530    0.0000 N   0  0  0  0  0  0  0  0  0  0  0  0
   13.0250  -11.7319    0.0000 O   0  0  0  0  0  0  0  0  0  0  0  0
   13.0141  -13.3663    0.0000 C   0  0  0  0  0  0  0  0  0  0  0  0
   13.0087  -14.1834    0.0000 C   0  0  0  0  0  0  0  0  0  0  0  0
   13.7246  -12.9624    0.0000 C   0  0  0  0  0  0  0  0  0  0  0  0
   14.4295  -13.3757    0.0000 N   0  0  0  0  0  0  0  0  0  0  0  0
   13.7300  -12.1452    0.0000 O   0  0  0  0  0  0  0  0  0  0  0  0
   15.1399  -12.9718    0.0000 C   0  0  0  0  0  0  0  0  0  0  0  0
   15.8449  -13.3851    0.0000 C   0  0  0  0  0  0  0  0  0  0  0  0
   15.1454  -12.1546    0.0000 C   0  0  0  0  0  0  0  0  0  0  0  0
   15.8558  -11.7508    0.0000 C   0  0  0  0  0  0  0  0  0  0  0  0
   14.4404  -11.7413    0.0000 C   0  0  0  0  0  0  0  0  0  0  0  0
   15.8395  -14.2023    0.0000 O   0  0  0  0  0  0  0  0  0  0  0  0
   16.5553  -12.9812    0.0000 N   0  0  0  0  0  0  0  0  0  0  0  0
   17.2603  -13.3945    0.0000 C   0  0  0  0  0  0  0  0  0  0  0  0
   16.5608  -12.1641    0.0000 C   0  0  0  0  0  0  0  0  0  0  0  0
   17.9707  -12.9907    0.0000 C   0  0  0  0  0  0  0  0  0  0  0  0
   18.7153  -13.3254    0.0000 N   0  0  0  0  0  0  0  0  0  0  0  0
   19.2661  -12.7217    0.0000 C   0  0  0  0  0  0  0  0  0  0  0  0
   18.8622  -12.0113    0.0000 C   0  0  0  0  0  0  0  0  0  0  0  0
   18.0618  -12.1760    0.0000 S   0  0  0  0  0  0  0  0  0  0  0  0
   12.2983  -14.5873    0.0000 C   0  0  0  0  0  0  0  0  0  0  0  0
   12.2928  -15.4045    0.0000 C   0  0  0  0  0  0  0  0  0  0  0  0
   11.5933  -14.1740    0.0000 C   0  0  0  0  0  0  0  0  0  0  0  0
   14.4241  -14.1929    0.0000 C   0  0  0  0  0  0  0  0  0  0  0  0
  1  2  1  0
  1  3  1  0
  3  4  1  0
  3  5  2  0
  4  6  1  0
  6  7  1  0
  2  8  1  0
  2  9  1  1
  9 10  1  0
  9 11  1  0
  8 12  2  0
  8 13  1  0
 13 14  1  0
 14 15  1  0
 15 16  1  0
 16 17  1  0
 17 13  1  0
 14 18  1  1
 18 19  2  0
 18 20  1  0
 20 21  1  0
 20 22  1  0
 22 23  1  0
 22 24  1  1
 24 25  1  0
 25 26  2  0
 26 27  1  0
 27 28  2  0
 28 29  1  0
 29 30  2  0
 30 25  1  0
 23 31  1  0
 23 32  2  0
 31 33  1  0
 33 34  1  6
 33 35  1  0
 35 36  1  0
 35 37  2  0
 36 38  1  0
 38 39  1  0
 38 40  1  1
 40 41  1  0
 40 42  1  0
 39 43  2  0
 39 44  1  0
 44 45  1  0
 44 46  1  0
 45 47  1  0
 47 48  2  0
 48 49  1  0
 49 50  2  0
 50 51  1  0
 51 47  1  0
 34 52  1  0
 52 53  1  0
 52 54  1  0
 36 55  1  0
M  END
> <From>
www.bindingDB.org

> <BindingDB Reactant_set_id>
51105755

> <Ligand InChI>
InChI=1S/C41H63N7O6S/c1-11-16-33(49)44-35(27(4)5)40(53)48-21-15-19-31(48)39(52)46(9)32(24-29-17-13-12-14-18-29)37(50)43-30(23-26(2)3)38(51)47(10)36(28(6)7)41(54)45(8)25-34-42-20-22-55-34/h12-14,17-18,20,22,26-28,30-32,35-36H,11,15-16,19,21,23-25H2,1-10H3,(H,43,50)(H,44,49)/t30-,31-,32-,35-,36-/m0/s1

> <Ligand InChI Key>
YUSHRJINPQIDME-XGQIDOAOSA-N

> <BindingDB MonomerID>
50450892

> <BindingDB Ligand Name>
CHEMBL4207917

> <Target Name>
Sterol O-acyltransferase 2

> <Target Source Organism According to Curator or DataSource>


> <Ki (nM)>


> <IC50 (nM)>
 9600

> <Kd (nM)>


> <EC50 (nM)>


> <kon (M-1-s-1)>


> <koff (s-1)>


> <pH>


> <Temp (C)>


> <Curation/DataSource>
ChEMBL

> <Article DOI>
10.1021/acs.jnatprod.7b00137

> <BindingDB Entry DOI>
10.7270/Q2251MS3

> <PMID>
28294609

> <PubChem AID>


> <Patent Number>


> <Authors>
Iwasaki, A; Tadenuma, T; Sumimoto, S; Ohshiro, T; Ozaki, K; Kobayashi, K; Teruya, T; Tomoda, H; Suenaga, K

> <Institution>
Keio University

> <Link to Ligand in BindingDB>
http://www.bindingdb.org/bind/chemsearch/marvin/MolStructure.jsp?monomerid=50450892

> <Link to Target in BindingDB>
http://www.bindingdb.org/jsp/dbsearch/PrimarySearch_ki.jsp?energyterm=kJ/mole&tag=pol&polymerid=50007205&target=Sterol+O-acyltransferase+2&column=ki&startPg=0&Increment=50&submit=Search

> <Link to Ligand-Target Pair in BindingDB>
http://www.bindingdb.org/jsp/dbsearch/PrimarySearch_ki.jsp?energyterm=kJ/mole&tag=r21&monomerid=50450892&enzyme=Sterol+O-acyltransferase+2&column=ki&startPg=0&Increment=50&submit=Search

> <Ligand HET ID in PDB>


> <PDB ID(s) for Ligand-Target Complex>


> <PubChem CID>
139589701

> <PubChem SID>
433920234

> <ChEBI ID of Ligand>


> <ChEMBL ID of Ligand>


> <DrugBank ID of Ligand>


> <IUPHAR_GRAC ID of Ligand>


> <KEGG ID of Ligand>


> <ZINC ID of Ligand>


> <Number of Protein Chains in Target (>1 implies a multichain complex)>
1

> <BindingDB Target Chain Sequence>
MEPGGARLRLQRTEGPGGEREHQPCRDGNTETHRAPDLVKWTRHMEAVKAQLLEQAQGQLRELLDRAMWEAIQSYPSQDKPPPLPPPDSLSRTQEPSLGKQKVFIIRKSLLDELMEVQHFRTIYHMFIAGLCVFIISTLAIDFIDEGRLLLEFDLLIFSFGQLPLALVTWVPMFLSTLLAPYQALRLWARPGARGTWTLGAGLGCALLAAHALVLCALPVHVAVEHQLPPASRCVLVFEQVRFLMKSYSFLREAVPGTLRARRGEGIQAPSFSSYLYFLFCPTLIYRETYPRTPYIRWNYVAKNFAQALGCVLYACFILGRLCVPVFANMSREPFSTRALVLSILHATLPGIFMLLLIFFAFLHCWLNAFAEMLRFGDRMFYRDWWNSTSFSNYYRTWNVVVHDWLYSYVYQDGLWLLGAQARGVAMLGVFLVSAVAHEYIFCFVLGFFYPVMLILFLVIGGMLNFMMHDQHTGPAWNVLMWTMLFLGQGIQVSLYCQEWYARRHCPLPQTTFWGLVTPRSWSCHT

> <PDB ID(s) of Target Chain>


> <UniProt (SwissProt) Recommended Name of Target Chain>
Sterol O-acyltransferase 2

> <UniProt (SwissProt) Entry Name of Target Chain>
ACAT-2

> <UniProt (SwissProt) Primary ID of Target Chain>
O77759

> <UniProt (SwissProt) Secondary ID(s) of Target Chain>


> <UniProt (SwissProt) Alternative ID(s) of Target Chain>


> <UniProt (TrEMBL) Submitted Name of Target Chain>


> <UniProt (TrEMBL) Entry Name of Target Chain>


> <UniProt (TrEMBL) Primary ID of Target Chain>


> <UniProt (TrEMBL) Secondary ID(s) of Target Chain>


> <UniProt (TrEMBL) Alternative ID(s) of Target Chain>


$$$$

     RDKit          2D

 56 58  0  0  0  0  0  0  0  0999 V2000
    4.6927   -3.6237    0.0000 N   0  0  0  0  0  0  0  0  0  0  0  0
    5.4004   -3.2151    0.0000 C   0  0  0  0  0  0  0  0  0  0  0  0
    3.9850   -3.2151    0.0000 C   0  0  0  0  0  0  0  0  0  0  0  0
    3.2772   -3.6237    0.0000 C   0  0  0  0  0  0  0  0  0  0  0  0
    3.9850   -2.3979    0.0000 O   0  0  0  0  0  0  0  0  0  0  0  0
    2.5695   -3.2151    0.0000 C   0  0  0  0  0  0  0  0  0  0  0  0
    1.8618   -3.6237    0.0000 C   0  0  0  0  0  0  0  0  0  0  0  0
    6.1081   -3.6237    0.0000 C   0  0  0  0  0  0  0  0  0  0  0  0
    5.4004   -2.3979    0.0000 C   0  0  0  0  0  0  0  0  0  0  0  0
    6.1081   -1.9893    0.0000 C   0  0  0  0  0  0  0  0  0  0  0  0
    4.6927   -1.9893    0.0000 C   0  0  0  0  0  0  0  0  0  0  0  0
    6.1081   -4.4409    0.0000 O   0  0  0  0  0  0  0  0  0  0  0  0
    6.8158   -3.2151    0.0000 N   0  0  0  0  0  0  0  0  0  0  0  0
    7.5624   -3.5426    0.0000 C   0  0  0  0  0  0  0  0  0  0  0  0
    8.1092   -2.9353    0.0000 C   0  0  0  0  0  0  0  0  0  0  0  0
    7.7006   -2.2275    0.0000 C   0  0  0  0  0  0  0  0  0  0  0  0
    6.9013   -2.3975    0.0000 C   0  0  0  0  0  0  0  0  0  0  0  0
    7.5570   -4.3584    0.0000 C   0  0  0  0  0  0  0  0  0  0  0  0
    6.8465   -4.7622    0.0000 O   0  0  0  0  0  0  0  0  0  0  0  0
    8.2619   -4.7717    0.0000 N   0  0  0  0  0  0  0  0  0  0  0  0
    8.2565   -5.5888    0.0000 C   0  0  0  0  0  0  0  0  0  0  0  0
    8.9723   -4.3678    0.0000 C   0  0  0  0  0  0  0  0  0  0  0  0
    9.6773   -4.7811    0.0000 C   0  0  0  0  0  0  0  0  0  0  0  0
    8.9778   -3.5506    0.0000 C   0  0  0  0  0  0  0  0  0  0  0  0
    9.6882   -3.1467    0.0000 C   0  0  0  0  0  0  0  0  0  0  0  0
   10.3904   -3.5634    0.0000 C   0  0  0  0  0  0  0  0  0  0  0  0
   11.1003   -3.1602    0.0000 C   0  0  0  0  0  0  0  0  0  0  0  0
   11.1062   -2.3422    0.0000 C   0  0  0  0  0  0  0  0  0  0  0  0
   10.3962   -1.9290    0.0000 C   0  0  0  0  0  0  0  0  0  0  0  0
    9.6892   -2.3346    0.0000 C   0  0  0  0  0  0  0  0  0  0  0  0
    9.6719   -5.5982    0.0000 N   0  0  0  0  0  0  0  0  0  0  0  0
   10.3877   -4.3772    0.0000 O   0  0  0  0  0  0  0  0  0  0  0  0
   10.3768   -6.0115    0.0000 C   0  0  0  0  0  0  0  0  0  0  0  0
   10.3714   -6.8287    0.0000 C   0  0  0  0  0  0  0  0  0  0  0  0
   11.0873   -5.6077    0.0000 C   0  0  0  0  0  0  0  0  0  0  0  0
   11.7922   -6.0210    0.0000 N   0  0  0  0  0  0  0  0  0  0  0  0
   11.0927   -4.7905    0.0000 O   0  0  0  0  0  0  0  0  0  0  0  0
   12.5026   -5.6171    0.0000 C   0  0  0  0  0  0  0  0  0  0  0  0
   13.2076   -6.0304    0.0000 C   0  0  0  0  0  0  0  0  0  0  0  0
   12.5081   -4.7999    0.0000 C   0  0  0  0  0  0  0  0  0  0  0  0
   13.2185   -4.3961    0.0000 C   0  0  0  0  0  0  0  0  0  0  0  0
   11.8031   -4.3866    0.0000 C   0  0  0  0  0  0  0  0  0  0  0  0
   13.2022   -6.8476    0.0000 O   0  0  0  0  0  0  0  0  0  0  0  0
   13.9180   -5.6265    0.0000 N   0  0  0  0  0  0  0  0  0  0  0  0
   14.6230   -6.0398    0.0000 C   0  0  0  0  0  0  0  0  0  0  0  0
   13.9235   -4.8093    0.0000 C   0  0  0  0  0  0  0  0  0  0  0  0
   15.3334   -5.6359    0.0000 C   0  0  0  0  0  0  0  0  0  0  0  0
   16.0780   -5.9706    0.0000 N   0  0  0  0  0  0  0  0  0  0  0  0
   16.6288   -5.3670    0.0000 C   0  0  0  0  0  0  0  0  0  0  0  0
   16.2249   -4.6565    0.0000 C   0  0  0  0  0  0  0  0  0  0  0  0
   15.4245   -4.8212    0.0000 S   0  0  0  0  0  0  0  0  0  0  0  0
    9.6610   -7.2326    0.0000 C   0  0  0  0  0  0  0  0  0  0  0  0
    9.6555   -8.0498    0.0000 C   0  0  0  0  0  0  0  0  0  0  0  0
    8.9560   -6.8193    0.0000 C   0  0  0  0  0  0  0  0  0  0  0  0
    4.6927   -4.4409    0.0000 C   0  0  0  0  0  0  0  0  0  0  0  0
   11.7868   -6.8381    0.0000 C   0  0  0  0  0  0  0  0  0  0  0  0
  1  2  1  0
  1  3  1  0
  3  4  1  0
  3  5  2  0
  4  6  1  0
  6  7  1  0
  2  8  1  0
  2  9  1  1
  9 10  1  0
  9 11  1  0
  8 12  2  0
  8 13  1  0
 13 14  1  0
 14 15  1  0
 15 16  1  0
 16 17  1  0
 17 13  1  0
 14 18  1  1
 18 19  2  0
 18 20  1  0
 20 21  1  0
 20 22  1  0
 22 23  1  0
 22 24  1  1
 24 25  1  0
 25 26  2  0
 26 27  1  0
 27 28  2  0
 28 29  1  0
 29 30  2  0
 30 25  1  0
 23 31  1  0
 23 32  2  0
 31 33  1  0
 33 34  1  6
 33 35  1  0
 35 36  1  0
 35 37  2  0
 36 38  1  0
 38 39  1  0
 38 40  1  1
 40 41  1  0
 40 42  1  0
 39 43  2  0
 39 44  1  0
 44 45  1  0
 44 46  1  0
 45 47  1  0
 47 48  2  0
 48 49  1  0
 49 50  2  0
 50 51  1  0
 51 47  1  0
 34 52  1  0
 52 53  1  0
 52 54  1  0
  1 55  1  0
 36 56  1  0
M  END
> <From>
www.bindingDB.org

> <BindingDB Reactant_set_id>
51105761

> <Ligand InChI>
InChI=1S/C42H65N7O6S/c1-12-17-35(50)47(10)37(29(6)7)42(55)49-22-16-20-32(49)40(53)46(9)33(25-30-18-14-13-15-19-30)38(51)44-31(24-27(2)3)39(52)48(11)36(28(4)5)41(54)45(8)26-34-43-21-23-56-34/h13-15,18-19,21,23,27-29,31-33,36-37H,12,16-17,20,22,24-26H2,1-11H3,(H,44,51)/t31-,32-,33-,36-,37-/m0/s1

> <Ligand InChI Key>
XNASEKUWNLNRSN-LMUGUXCZSA-N

> <BindingDB MonomerID>
50450891

> <BindingDB Ligand Name>
CHEMBL4212280

> <Target Name>
Sterol O-acyltransferase 2

> <Target Source Organism According to Curator or DataSource>


> <Ki (nM)>


> <IC50 (nM)>
 9600

> <Kd (nM)>


> <EC50 (nM)>


> <kon (M-1-s-1)>


> <koff (s-1)>


> <pH>


> <Temp (C)>


> <Curation/DataSource>
ChEMBL

> <Article DOI>
10.1021/acs.jnatprod.7b00137

> <BindingDB Entry DOI>
10.7270/Q2251MS3

> <PMID>
28294609

> <PubChem AID>


> <Patent Number>


> <Authors>
Iwasaki, A; Tadenuma, T; Sumimoto, S; Ohshiro, T; Ozaki, K; Kobayashi, K; Teruya, T; Tomoda, H; Suenaga, K

> <Institution>
Keio University

> <Link to Ligand in BindingDB>
http://www.bindingdb.org/bind/chemsearch/marvin/MolStructure.jsp?monomerid=50450891

> <Link to Target in BindingDB>
http://www.bindingdb.org/jsp/dbsearch/PrimarySearch_ki.jsp?energyterm=kJ/mole&tag=pol&polymerid=50007205&target=Sterol+O-acyltransferase+2&column=ki&startPg=0&Increment=50&submit=Search

> <Link to Ligand-Target Pair in BindingDB>
http://www.bindingdb.org/jsp/dbsearch/PrimarySearch_ki.jsp?energyterm=kJ/mole&tag=r21&monomerid=50450891&enzyme=Sterol+O-acyltransferase+2&column=ki&startPg=0&Increment=50&submit=Search

> <Ligand HET ID in PDB>


> <PDB ID(s) for Ligand-Target Complex>


> <PubChem CID>
137628581

> <PubChem SID>
433920233

> <ChEBI ID of Ligand>


> <ChEMBL ID of Ligand>


> <DrugBank ID of Ligand>


> <IUPHAR_GRAC ID of Ligand>


> <KEGG ID of Ligand>


> <ZINC ID of Ligand>


> <Number of Protein Chains in Target (>1 implies a multichain complex)>
1

> <BindingDB Target Chain Sequence>
MEPGGARLRLQRTEGPGGEREHQPCRDGNTETHRAPDLVKWTRHMEAVKAQLLEQAQGQLRELLDRAMWEAIQSYPSQDKPPPLPPPDSLSRTQEPSLGKQKVFIIRKSLLDELMEVQHFRTIYHMFIAGLCVFIISTLAIDFIDEGRLLLEFDLLIFSFGQLPLALVTWVPMFLSTLLAPYQALRLWARPGARGTWTLGAGLGCALLAAHALVLCALPVHVAVEHQLPPASRCVLVFEQVRFLMKSYSFLREAVPGTLRARRGEGIQAPSFSSYLYFLFCPTLIYRETYPRTPYIRWNYVAKNFAQALGCVLYACFILGRLCVPVFANMSREPFSTRALVLSILHATLPGIFMLLLIFFAFLHCWLNAFAEMLRFGDRMFYRDWWNSTSFSNYYRTWNVVVHDWLYSYVYQDGLWLLGAQARGVAMLGVFLVSAVAHEYIFCFVLGFFYPVMLILFLVIGGMLNFMMHDQHTGPAWNVLMWTMLFLGQGIQVSLYCQEWYARRHCPLPQTTFWGLVTPRSWSCHT

> <PDB ID(s) of Target Chain>


> <UniProt (SwissProt) Recommended Name of Target Chain>
Sterol O-acyltransferase 2

> <UniProt (SwissProt) Entry Name of Target Chain>
ACAT-2

> <UniProt (SwissProt) Primary ID of Target Chain>
O77759

> <UniProt (SwissProt) Secondary ID(s) of Target Chain>


> <UniProt (SwissProt) Alternative ID(s) of Target Chain>


> <UniProt (TrEMBL) Submitted Name of Target Chain>


> <UniProt (TrEMBL) Entry Name of Target Chain>


> <UniProt (TrEMBL) Primary ID of Target Chain>


> <UniProt (TrEMBL) Secondary ID(s) of Target Chain>


> <UniProt (TrEMBL) Alternative ID(s) of Target Chain>


$$$$

  SciTegic09261414532D

 40 44  0  0  0  0            999 V2000
   11.9802   -6.1132    0.0000 C   0  0
   11.5677   -5.3987    0.0000 C   0  0
   12.8052   -6.1132    0.0000 O   0  0
   11.5677   -6.8277    0.0000 O   0  0
   10.7427   -5.3987    0.0000 C   0  0  1  0  0  0
   10.3302   -6.1132    0.0000 C   0  0
    9.5052   -6.1132    0.0000 C   0  0
    9.0927   -5.3987    0.0000 C   0  0  1  0  0  0
    9.5052   -4.6842    0.0000 C   0  0
   10.3302   -4.6842    0.0000 C   0  0
    8.2677   -5.3987    0.0000 C   0  0
    7.8552   -6.1132    0.0000 C   0  0
    7.0302   -6.1132    0.0000 C   0  0
    6.6177   -5.3987    0.0000 C   0  0
    7.0302   -4.6842    0.0000 C   0  0
    7.8552   -4.6842    0.0000 C   0  0
    4.1427   -6.8277    0.0000 O   0  0
    4.5552   -6.1132    0.0000 C   0  0
    4.1427   -5.3987    0.0000 C   0  0
    3.3177   -5.3987    0.0000 N   0  0
    2.9052   -6.1132    0.0000 C   0  0
    3.3177   -6.8277    0.0000 C   0  0
    4.5552   -4.6842    0.0000 C   0  0
    5.3802   -4.6842    0.0000 C   0  0
    5.7927   -5.3987    0.0000 C   0  0
    5.3802   -6.1132    0.0000 C   0  0
    2.9052   -4.6842    0.0000 C   0  0
    2.0802   -4.6842    0.0000 N   0  0
    3.3177   -3.9698    0.0000 O   0  0
    1.6677   -3.9698    0.0000 C   0  0
    0.8427   -3.9698    0.0000 C   0  0
    0.4302   -3.2553    0.0000 C   0  0
    0.8427   -2.5408    0.0000 C   0  0
    1.6677   -2.5408    0.0000 C   0  0
    2.0802   -3.2553    0.0000 C   0  0
    0.4302   -4.6842    0.0000 C   0  0
   -0.3321   -4.7991    0.0000 F   0  0
    0.7611   -5.4323    0.0000 F   0  0
    0.0177   -5.3987    0.0000 F   0  0
    0.4302   -1.8264    0.0000 F   0  0
  1  2  1  0
  1  3  2  0
  1  4  1  0
  5  6  1  0
  6  7  1  0
  7  8  1  0
  8  9  1  0
  9 10  1  0
  5 10  1  0
 11 12  1  0
 12 13  2  0
 13 14  1  0
 14 15  2  0
 15 16  1  0
 11 16  2  0
 17 18  1  0
 18 19  1  0
 19 20  1  0
 20 21  1  0
 21 22  1  0
 17 22  1  0
 23 24  1  0
 24 25  2  0
 25 26  1  0
 18 26  2  0
 19 23  2  0
 27 28  1  0
 27 29  2  0
 30 31  1  0
 31 32  2  0
 32 33  1  0
 33 34  2  0
 34 35  1  0
 30 35  2  0
 36 37  1  0
 36 38  1  0
 36 39  1  0
 31 36  1  0
 33 40  1  0
 28 30  1  0
 20 27  1  0
 14 25  1  0
  8 11  1  6
  5  2  1  1
M  END
> <From>
www.bindingDB.org

> <BindingDB Reactant_set_id>
50106522

> <Ligand InChI>
InChI=1S/C30H28F4N2O4/c31-23-10-11-25(24(17-23)30(32,33)34)35-29(39)36-13-14-40-27-16-22(9-12-26(27)36)21-7-5-20(6-8-21)19-3-1-18(2-4-19)15-28(37)38/h5-12,16-19H,1-4,13-15H2,(H,35,39)(H,37,38)/t18-,19-

> <Ligand InChI Key>
ITEHKXYSOFECGJ-WGSAOQKQSA-N

> <BindingDB MonomerID>
50020046

> <BindingDB Ligand Name>
CHEMBL3287878

> <Target Name>
Sterol O-acyltransferase 2

> <Target Source Organism According to Curator or DataSource>


> <Ki (nM)>


> <IC50 (nM)>
 9600

> <Kd (nM)>


> <EC50 (nM)>


> <kon (M-1-s-1)>


> <koff (s-1)>


> <pH>


> <Temp (C)>


> <Curation/DataSource>
ChEMBL

> <Article DOI>
10.1021/ml400527n

> <BindingDB Entry DOI>
10.7270/Q2KS6T3C

> <PMID>
24900877

> <PubChem AID>


> <Patent Number>


> <Authors>
Zhou, G; Zorn, N; Ting, P; Aslanian, R; Lin, M; Cook, J; Lachowicz, J; Lin, A; Smith, M; Hwa, J; van Heek, M; Walker, S

> <Institution>
Merck Research Laboratories

> <Link to Ligand in BindingDB>
http://www.bindingdb.org/bind/chemsearch/marvin/MolStructure.jsp?monomerid=50020046

> <Link to Target in BindingDB>
http://www.bindingdb.org/jsp/dbsearch/PrimarySearch_ki.jsp?energyterm=kJ/mole&tag=pol&polymerid=7773&target=Sterol+O-acyltransferase+2&column=ki&startPg=0&Increment=50&submit=Search

> <Link to Ligand-Target Pair in BindingDB>
http://www.bindingdb.org/jsp/dbsearch/PrimarySearch_ki.jsp?energyterm=kJ/mole&tag=r21&monomerid=50020046&enzyme=Sterol+O-acyltransferase+2&column=ki&startPg=0&Increment=50&submit=Search

> <Ligand HET ID in PDB>


> <PDB ID(s) for Ligand-Target Complex>


> <PubChem CID>
58064420

> <PubChem SID>
103930969

> <ChEBI ID of Ligand>


> <ChEMBL ID of Ligand>
CHEMBL3287878

> <DrugBank ID of Ligand>


> <IUPHAR_GRAC ID of Ligand>


> <KEGG ID of Ligand>


> <ZINC ID of Ligand>
ZINC28231563

> <Number of Protein Chains in Target (>1 implies a multichain complex)>
1

> <BindingDB Target Chain Sequence>
MEPGGARLRLQRTEGLGGERERQPCGDGNTETHRAPDLVQWTRHMEAVKAQLLEQAQGQLRELLDRAMREAIQSYPSQDKPLPPPPPGSLSRTQEPSLGKQKVFIIRKSLLDELMEVQHFRTIYHMFIAGLCVFIISTLAIDFIDEGRLLLEFDLLIFSFGQLPLALVTWVPMFLSTLLAPYQALRLWARGTWTQATGLGCALLAAHAVVLCALPVHVAVEHQLPPASRCVLVFEQVRFLMKSYSFLREAVPGTLRARRGEGIQAPSFSSYLYFLFCPTLIYRETYPRTPYVRWNYVAKNFAQALGCVLYACFILGRLCVPVFANMSREPFSTRALVLSILHATLPGIFMLLLIFFAFLHCWLNAFAEMLRFGDRMFYRDWWNSTSFSNYYRTWNVVVHDWLYSYVYQDGLRLLGARARGVAMLGVFLVSAVAHEYIFCFVLGFFYPVMLILFLVIGGMLNFMMHDQRTGPAWNVLMWTMLFLGQGIQVSLYCQEWYARRHCPLPQATFWGLVTPRSWSCHT

> <PDB ID(s) of Target Chain>


> <UniProt (SwissProt) Recommended Name of Target Chain>
Sterol O-acyltransferase 2

> <UniProt (SwissProt) Entry Name of Target Chain>
ACAT-2

> <UniProt (SwissProt) Primary ID of Target Chain>
O75908

> <UniProt (SwissProt) Secondary ID(s) of Target Chain>
F5H7W4 I6L9H9 Q4VB99 Q4VBA1 Q96TD4 Q9UNR2

> <UniProt (SwissProt) Alternative ID(s) of Target Chain>


> <UniProt (TrEMBL) Submitted Name of Target Chain>


> <UniProt (TrEMBL) Entry Name of Target Chain>


> <UniProt (TrEMBL) Primary ID of Target Chain>


> <UniProt (TrEMBL) Secondary ID(s) of Target Chain>


> <UniProt (TrEMBL) Alternative ID(s) of Target Chain>


$$$$

  SciTegic09261414462D

 35 39  0  0  0  0            999 V2000
   21.4187  -27.5120    0.0000 C   0  0
   22.1307  -27.9164    0.0000 C   0  0
   22.8342  -27.5022    0.0000 C   0  0
   22.8273  -26.6842    0.0000 C   0  0
   22.1112  -26.2832    0.0000 C   0  0
   21.4106  -26.7000    0.0000 C   0  0
   23.5306  -26.2679    0.0000 C   0  0  2  0  0  0
   24.2436  -26.6735    0.0000 C   0  0
   24.9447  -26.2607    0.0000 C   0  0
   24.9401  -25.4432    0.0000 C   0  0  2  0  0  0
   24.2282  -25.0401    0.0000 C   0  0
   23.5208  -25.4545    0.0000 C   0  0
   25.6449  -25.0296    0.0000 C   0  0
   26.3555  -25.4332    0.0000 C   0  0
   26.3606  -26.2485    0.0000 O   0  0
   27.0597  -25.0178    0.0000 O   0  0
   20.7157  -27.9268    0.0000 C   0  0
   20.0043  -27.5225    0.0000 C   0  0
   20.7240  -28.7406    0.0000 C   0  0
   19.2973  -27.9326    0.0000 C   0  0
   20.0240  -29.1600    0.0000 C   0  0
   19.3117  -28.7572    0.0000 C   0  0
   18.6106  -29.1704    0.0000 N   0  0
   18.6157  -29.9881    0.0000 C   0  0
   19.3280  -30.3909    0.0000 C   0  0
   20.0353  -29.9760    0.0000 O   0  0
   17.8998  -28.7672    0.0000 C   0  0
   17.8936  -27.9500    0.0000 O   0  0
   17.1952  -29.1811    0.0000 N   0  0
   16.4844  -28.7779    0.0000 C   0  0
   16.4772  -27.9625    0.0000 C   0  0
   15.7672  -27.5594    0.0000 C   0  0
   15.0617  -27.9734    0.0000 C   0  0
   15.0705  -28.7948    0.0000 C   0  0
   15.7810  -29.1942    0.0000 C   0  0
  1  2  2  0
  2  3  1  0
  3  4  2  0
  4  5  1  0
  5  6  2  0
  6  1  1  0
  7  4  1  1
  7  8  1  0
  7 12  1  0
  8  9  1  0
  9 10  1  0
 10 11  1  0
 11 12  1  0
 10 13  1  6
 13 14  1  0
 14 15  1  0
 14 16  2  0
 17 18  2  0
 18 20  1  0
 21 19  2  0
 19 17  1  0
  1 17  1  0
 22 20  2  0
 21 22  1  0
 21 26  1  0
 22 23  1  0
 23 24  1  0
 24 25  1  0
 25 26  1  0
 23 27  1  0
 27 28  2  0
 27 29  1  0
 29 30  1  0
 30 31  2  0
 31 32  1  0
 32 33  2  0
 33 34  1  0
 34 35  2  0
 35 30  1  0
M  END
> <From>
www.bindingDB.org

> <BindingDB Reactant_set_id>
50088729

> <Ligand InChI>
InChI=1S/C29H30N2O4/c32-28(33)18-20-6-8-21(9-7-20)22-10-12-23(13-11-22)24-14-15-26-27(19-24)35-17-16-31(26)29(34)30-25-4-2-1-3-5-25/h1-5,10-15,19-21H,6-9,16-18H2,(H,30,34)(H,32,33)/t20-,21-

> <Ligand InChI Key>
BNMAWKODXGBMCG-MEMLXQNLSA-N

> <BindingDB MonomerID>
50009432

> <BindingDB Ligand Name>
CHEMBL3233884

> <Target Name>
Sterol O-acyltransferase 2

> <Target Source Organism According to Curator or DataSource>


> <Ki (nM)>


> <IC50 (nM)>
 9700

> <Kd (nM)>


> <EC50 (nM)>


> <kon (M-1-s-1)>


> <koff (s-1)>


> <pH>


> <Temp (C)>


> <Curation/DataSource>
ChEMBL

> <Article DOI>
10.1016/j.bmcl.2014.02.028

> <BindingDB Entry DOI>
10.7270/Q2DR2X19

> <PMID>
24618302

> <PubChem AID>


> <Patent Number>


> <Authors>
Zhou, G; Ting, PC; Wishart, G; Zorn, N; Aslanian, RG; Lin, M; Smith, M; Walker, SS; Cook, J; Van Heek, M; Lachowicz, J

> <Institution>
Merck Research Laboratories

> <Link to Ligand in BindingDB>
http://www.bindingdb.org/bind/chemsearch/marvin/MolStructure.jsp?monomerid=50009432

> <Link to Target in BindingDB>
http://www.bindingdb.org/jsp/dbsearch/PrimarySearch_ki.jsp?energyterm=kJ/mole&tag=pol&polymerid=7773&target=Sterol+O-acyltransferase+2&column=ki&startPg=0&Increment=50&submit=Search

> <Link to Ligand-Target Pair in BindingDB>
http://www.bindingdb.org/jsp/dbsearch/PrimarySearch_ki.jsp?energyterm=kJ/mole&tag=r21&monomerid=50009432&enzyme=Sterol+O-acyltransferase+2&column=ki&startPg=0&Increment=50&submit=Search

> <Ligand HET ID in PDB>


> <PDB ID(s) for Ligand-Target Complex>


> <PubChem CID>
58064355

> <PubChem SID>
103922444

> <ChEBI ID of Ligand>


> <ChEMBL ID of Ligand>
CHEMBL3233884

> <DrugBank ID of Ligand>


> <IUPHAR_GRAC ID of Ligand>


> <KEGG ID of Ligand>


> <ZINC ID of Ligand>
ZINC40688972

> <Number of Protein Chains in Target (>1 implies a multichain complex)>
1

> <BindingDB Target Chain Sequence>
MEPGGARLRLQRTEGLGGERERQPCGDGNTETHRAPDLVQWTRHMEAVKAQLLEQAQGQLRELLDRAMREAIQSYPSQDKPLPPPPPGSLSRTQEPSLGKQKVFIIRKSLLDELMEVQHFRTIYHMFIAGLCVFIISTLAIDFIDEGRLLLEFDLLIFSFGQLPLALVTWVPMFLSTLLAPYQALRLWARGTWTQATGLGCALLAAHAVVLCALPVHVAVEHQLPPASRCVLVFEQVRFLMKSYSFLREAVPGTLRARRGEGIQAPSFSSYLYFLFCPTLIYRETYPRTPYVRWNYVAKNFAQALGCVLYACFILGRLCVPVFANMSREPFSTRALVLSILHATLPGIFMLLLIFFAFLHCWLNAFAEMLRFGDRMFYRDWWNSTSFSNYYRTWNVVVHDWLYSYVYQDGLRLLGARARGVAMLGVFLVSAVAHEYIFCFVLGFFYPVMLILFLVIGGMLNFMMHDQRTGPAWNVLMWTMLFLGQGIQVSLYCQEWYARRHCPLPQATFWGLVTPRSWSCHT

> <PDB ID(s) of Target Chain>


> <UniProt (SwissProt) Recommended Name of Target Chain>
Sterol O-acyltransferase 2

> <UniProt (SwissProt) Entry Name of Target Chain>
ACAT-2

> <UniProt (SwissProt) Primary ID of Target Chain>
O75908

> <UniProt (SwissProt) Secondary ID(s) of Target Chain>
F5H7W4 I6L9H9 Q4VB99 Q4VBA1 Q96TD4 Q9UNR2

> <UniProt (SwissProt) Alternative ID(s) of Target Chain>


> <UniProt (TrEMBL) Submitted Name of Target Chain>


> <UniProt (TrEMBL) Entry Name of Target Chain>


> <UniProt (TrEMBL) Primary ID of Target Chain>


> <UniProt (TrEMBL) Secondary ID(s) of Target Chain>


> <UniProt (TrEMBL) Alternative ID(s) of Target Chain>


$$$$

  SciTegic09261414462D

 35 39  0  0  0  0            999 V2000
   21.4187  -27.5120    0.0000 C   0  0
   22.1307  -27.9164    0.0000 C   0  0
   22.8342  -27.5022    0.0000 C   0  0
   22.8273  -26.6842    0.0000 C   0  0
   22.1112  -26.2832    0.0000 C   0  0
   21.4106  -26.7000    0.0000 C   0  0
   23.5306  -26.2679    0.0000 C   0  0  2  0  0  0
   24.2436  -26.6735    0.0000 C   0  0
   24.9447  -26.2607    0.0000 C   0  0
   24.9401  -25.4432    0.0000 C   0  0  2  0  0  0
   24.2282  -25.0401    0.0000 C   0  0
   23.5208  -25.4545    0.0000 C   0  0
   25.6449  -25.0296    0.0000 C   0  0
   26.3555  -25.4332    0.0000 C   0  0
   26.3606  -26.2485    0.0000 O   0  0
   27.0597  -25.0178    0.0000 O   0  0
   20.7157  -27.9268    0.0000 C   0  0
   20.0043  -27.5225    0.0000 C   0  0
   20.7240  -28.7406    0.0000 C   0  0
   19.2973  -27.9326    0.0000 C   0  0
   20.0240  -29.1600    0.0000 C   0  0
   19.3117  -28.7572    0.0000 C   0  0
   18.6106  -29.1704    0.0000 N   0  0
   18.6157  -29.9881    0.0000 C   0  0
   19.3280  -30.3909    0.0000 C   0  0
   20.0353  -29.9760    0.0000 O   0  0
   17.8998  -28.7672    0.0000 C   0  0
   17.8936  -27.9500    0.0000 O   0  0
   17.1952  -29.1811    0.0000 N   0  0
   16.4844  -28.7779    0.0000 C   0  0
   16.4772  -27.9625    0.0000 C   0  0
   15.7672  -27.5594    0.0000 C   0  0
   15.0617  -27.9734    0.0000 C   0  0
   15.0705  -28.7948    0.0000 C   0  0
   15.7810  -29.1942    0.0000 C   0  0
  1  2  2  0
  2  3  1  0
  3  4  2  0
  4  5  1  0
  5  6  2  0
  6  1  1  0
  7  4  1  1
  7  8  1  0
  7 12  1  0
  8  9  1  0
  9 10  1  0
 10 11  1  0
 11 12  1  0
 10 13  1  6
 13 14  1  0
 14 15  1  0
 14 16  2  0
 17 18  2  0
 18 20  1  0
 21 19  2  0
 19 17  1  0
  1 17  1  0
 22 20  2  0
 21 22  1  0
 21 26  1  0
 22 23  1  0
 23 24  1  0
 24 25  1  0
 25 26  1  0
 23 27  1  0
 27 28  2  0
 27 29  1  0
 29 30  1  0
 30 31  2  0
 31 32  1  0
 32 33  2  0
 33 34  1  0
 34 35  2  0
 35 30  1  0
M  END
> <From>
www.bindingDB.org

> <BindingDB Reactant_set_id>
50106519

> <Ligand InChI>
InChI=1S/C29H30N2O4/c32-28(33)18-20-6-8-21(9-7-20)22-10-12-23(13-11-22)24-14-15-26-27(19-24)35-17-16-31(26)29(34)30-25-4-2-1-3-5-25/h1-5,10-15,19-21H,6-9,16-18H2,(H,30,34)(H,32,33)/t20-,21-

> <Ligand InChI Key>
BNMAWKODXGBMCG-MEMLXQNLSA-N

> <BindingDB MonomerID>
50009432

> <BindingDB Ligand Name>
CHEMBL3233884

> <Target Name>
Sterol O-acyltransferase 2

> <Target Source Organism According to Curator or DataSource>


> <Ki (nM)>


> <IC50 (nM)>
 9700

> <Kd (nM)>


> <EC50 (nM)>


> <kon (M-1-s-1)>


> <koff (s-1)>


> <pH>


> <Temp (C)>


> <Curation/DataSource>
ChEMBL

> <Article DOI>
10.1021/ml400527n

> <BindingDB Entry DOI>
10.7270/Q2KS6T3C

> <PMID>
24900877

> <PubChem AID>


> <Patent Number>


> <Authors>
Zhou, G; Zorn, N; Ting, P; Aslanian, R; Lin, M; Cook, J; Lachowicz, J; Lin, A; Smith, M; Hwa, J; van Heek, M; Walker, S

> <Institution>
Merck Research Laboratories

> <Link to Ligand in BindingDB>
http://www.bindingdb.org/bind/chemsearch/marvin/MolStructure.jsp?monomerid=50009432

> <Link to Target in BindingDB>
http://www.bindingdb.org/jsp/dbsearch/PrimarySearch_ki.jsp?energyterm=kJ/mole&tag=pol&polymerid=7773&target=Sterol+O-acyltransferase+2&column=ki&startPg=0&Increment=50&submit=Search

> <Link to Ligand-Target Pair in BindingDB>
http://www.bindingdb.org/jsp/dbsearch/PrimarySearch_ki.jsp?energyterm=kJ/mole&tag=r21&monomerid=50009432&enzyme=Sterol+O-acyltransferase+2&column=ki&startPg=0&Increment=50&submit=Search

> <Ligand HET ID in PDB>


> <PDB ID(s) for Ligand-Target Complex>


> <PubChem CID>
58064355

> <PubChem SID>
103922444

> <ChEBI ID of Ligand>


> <ChEMBL ID of Ligand>
CHEMBL3233884

> <DrugBank ID of Ligand>


> <IUPHAR_GRAC ID of Ligand>


> <KEGG ID of Ligand>


> <ZINC ID of Ligand>
ZINC40688972

> <Number of Protein Chains in Target (>1 implies a multichain complex)>
1

> <BindingDB Target Chain Sequence>
MEPGGARLRLQRTEGLGGERERQPCGDGNTETHRAPDLVQWTRHMEAVKAQLLEQAQGQLRELLDRAMREAIQSYPSQDKPLPPPPPGSLSRTQEPSLGKQKVFIIRKSLLDELMEVQHFRTIYHMFIAGLCVFIISTLAIDFIDEGRLLLEFDLLIFSFGQLPLALVTWVPMFLSTLLAPYQALRLWARGTWTQATGLGCALLAAHAVVLCALPVHVAVEHQLPPASRCVLVFEQVRFLMKSYSFLREAVPGTLRARRGEGIQAPSFSSYLYFLFCPTLIYRETYPRTPYVRWNYVAKNFAQALGCVLYACFILGRLCVPVFANMSREPFSTRALVLSILHATLPGIFMLLLIFFAFLHCWLNAFAEMLRFGDRMFYRDWWNSTSFSNYYRTWNVVVHDWLYSYVYQDGLRLLGARARGVAMLGVFLVSAVAHEYIFCFVLGFFYPVMLILFLVIGGMLNFMMHDQRTGPAWNVLMWTMLFLGQGIQVSLYCQEWYARRHCPLPQATFWGLVTPRSWSCHT

> <PDB ID(s) of Target Chain>


> <UniProt (SwissProt) Recommended Name of Target Chain>
Sterol O-acyltransferase 2

> <UniProt (SwissProt) Entry Name of Target Chain>
ACAT-2

> <UniProt (SwissProt) Primary ID of Target Chain>
O75908

> <UniProt (SwissProt) Secondary ID(s) of Target Chain>
F5H7W4 I6L9H9 Q4VB99 Q4VBA1 Q96TD4 Q9UNR2

> <UniProt (SwissProt) Alternative ID(s) of Target Chain>


> <UniProt (TrEMBL) Submitted Name of Target Chain>


> <UniProt (TrEMBL) Entry Name of Target Chain>


> <UniProt (TrEMBL) Primary ID of Target Chain>


> <UniProt (TrEMBL) Secondary ID(s) of Target Chain>


> <UniProt (TrEMBL) Alternative ID(s) of Target Chain>


$$$$

     RDKit          2D

 55 57  0  0  0  0  0  0  0  0999 V2000
   20.0336   -4.1148    0.0000 N   0  0  0  0  0  0  0  0  0  0  0  0
   20.7413   -3.7063    0.0000 C   0  0  0  0  0  0  0  0  0  0  0  0
   19.3259   -3.7063    0.0000 C   0  0  0  0  0  0  0  0  0  0  0  0
   18.6181   -4.1148    0.0000 C   0  0  0  0  0  0  0  0  0  0  0  0
   19.3259   -2.8891    0.0000 O   0  0  0  0  0  0  0  0  0  0  0  0
   17.9104   -3.7063    0.0000 C   0  0  0  0  0  0  0  0  0  0  0  0
   17.2027   -4.1148    0.0000 C   0  0  0  0  0  0  0  0  0  0  0  0
   21.4490   -4.1148    0.0000 C   0  0  0  0  0  0  0  0  0  0  0  0
   20.7413   -2.8891    0.0000 C   0  0  0  0  0  0  0  0  0  0  0  0
   21.4490   -2.4805    0.0000 C   0  0  0  0  0  0  0  0  0  0  0  0
   20.0336   -2.4805    0.0000 C   0  0  0  0  0  0  0  0  0  0  0  0
   21.4490   -4.9320    0.0000 O   0  0  0  0  0  0  0  0  0  0  0  0
   22.1567   -3.7063    0.0000 N   0  0  0  0  0  0  0  0  0  0  0  0
   22.9033   -4.0337    0.0000 C   0  0  0  0  0  0  0  0  0  0  0  0
   23.4501   -3.4264    0.0000 C   0  0  0  0  0  0  0  0  0  0  0  0
   23.0415   -2.7186    0.0000 C   0  0  0  0  0  0  0  0  0  0  0  0
   22.2422   -2.8887    0.0000 C   0  0  0  0  0  0  0  0  0  0  0  0
   22.8979   -4.8495    0.0000 C   0  0  0  0  0  0  0  0  0  0  0  0
   22.1875   -5.2534    0.0000 O   0  0  0  0  0  0  0  0  0  0  0  0
   23.6028   -5.2628    0.0000 N   0  0  0  0  0  0  0  0  0  0  0  0
   23.5974   -6.0800    0.0000 C   0  0  0  0  0  0  0  0  0  0  0  0
   24.3132   -4.8589    0.0000 C   0  0  0  0  0  0  0  0  0  0  0  0
   25.0182   -5.2722    0.0000 C   0  0  0  0  0  0  0  0  0  0  0  0
   24.3187   -4.0417    0.0000 C   0  0  0  0  0  0  0  0  0  0  0  0
   25.0291   -3.6379    0.0000 C   0  0  0  0  0  0  0  0  0  0  0  0
   25.7313   -4.0546    0.0000 C   0  0  0  0  0  0  0  0  0  0  0  0
   26.4412   -3.6514    0.0000 C   0  0  0  0  0  0  0  0  0  0  0  0
   26.4471   -2.8333    0.0000 C   0  0  0  0  0  0  0  0  0  0  0  0
   25.7371   -2.4201    0.0000 C   0  0  0  0  0  0  0  0  0  0  0  0
   25.0301   -2.8257    0.0000 C   0  0  0  0  0  0  0  0  0  0  0  0
   25.0128   -6.0894    0.0000 N   0  0  0  0  0  0  0  0  0  0  0  0
   25.7286   -4.8683    0.0000 O   0  0  0  0  0  0  0  0  0  0  0  0
   25.7178   -6.5027    0.0000 C   0  0  0  0  0  0  0  0  0  0  0  0
   25.7123   -7.3199    0.0000 C   0  0  0  0  0  0  0  0  0  0  0  0
   26.4282   -6.0988    0.0000 C   0  0  0  0  0  0  0  0  0  0  0  0
   27.1331   -6.5121    0.0000 N   0  0  0  0  0  0  0  0  0  0  0  0
   26.4336   -5.2816    0.0000 O   0  0  0  0  0  0  0  0  0  0  0  0
   27.8436   -6.1082    0.0000 C   0  0  0  0  0  0  0  0  0  0  0  0
   28.5485   -6.5215    0.0000 C   0  0  0  0  0  0  0  0  0  0  0  0
   27.8490   -5.2911    0.0000 C   0  0  0  0  0  0  0  0  0  0  0  0
   28.5594   -4.8872    0.0000 C   0  0  0  0  0  0  0  0  0  0  0  0
   27.1440   -4.8778    0.0000 C   0  0  0  0  0  0  0  0  0  0  0  0
   28.5431   -7.3387    0.0000 O   0  0  0  0  0  0  0  0  0  0  0  0
   29.2589   -6.1177    0.0000 N   0  0  0  0  0  0  0  0  0  0  0  0
   29.9639   -6.5310    0.0000 C   0  0  0  0  0  0  0  0  0  0  0  0
   29.2644   -5.3005    0.0000 C   0  0  0  0  0  0  0  0  0  0  0  0
   30.6743   -6.1271    0.0000 C   0  0  0  0  0  0  0  0  0  0  0  0
   31.4189   -6.4618    0.0000 N   0  0  0  0  0  0  0  0  0  0  0  0
   31.9697   -5.8581    0.0000 C   0  0  0  0  0  0  0  0  0  0  0  0
   31.5658   -5.1477    0.0000 C   0  0  0  0  0  0  0  0  0  0  0  0
   30.7654   -5.3124    0.0000 S   0  0  0  0  0  0  0  0  0  0  0  0
   25.0019   -7.7237    0.0000 C   0  0  0  0  0  0  0  0  0  0  0  0
   24.9965   -8.5409    0.0000 C   0  0  0  0  0  0  0  0  0  0  0  0
   24.2969   -7.3104    0.0000 C   0  0  0  0  0  0  0  0  0  0  0  0
   20.0336   -4.9320    0.0000 C   0  0  0  0  0  0  0  0  0  0  0  0
  1  2  1  0
  1  3  1  0
  3  4  1  0
  3  5  2  0
  4  6  1  0
  6  7  1  0
  2  8  1  0
  2  9  1  1
  9 10  1  0
  9 11  1  0
  8 12  2  0
  8 13  1  0
 13 14  1  0
 14 15  1  0
 15 16  1  0
 16 17  1  0
 17 13  1  0
 14 18  1  1
 18 19  2  0
 18 20  1  0
 20 21  1  0
 20 22  1  0
 22 23  1  0
 22 24  1  1
 24 25  1  0
 25 26  2  0
 26 27  1  0
 27 28  2  0
 28 29  1  0
 29 30  2  0
 30 25  1  0
 23 31  1  0
 23 32  2  0
 31 33  1  0
 33 34  1  6
 33 35  1  0
 35 36  1  0
 35 37  2  0
 36 38  1  0
 38 39  1  0
 38 40  1  1
 40 41  1  0
 40 42  1  0
 39 43  2  0
 39 44  1  0
 44 45  1  0
 44 46  1  0
 45 47  1  0
 47 48  2  0
 48 49  1  0
 49 50  2  0
 50 51  1  0
 51 47  1  0
 34 52  1  0
 52 53  1  0
 52 54  1  0
  1 55  1  0
M  END
> <From>
www.bindingDB.org

> <BindingDB Reactant_set_id>
51105762

> <Ligand InChI>
InChI=1S/C41H63N7O6S/c1-11-16-34(49)47(10)36(28(6)7)41(54)48-21-15-19-31(48)39(52)46(9)32(24-29-17-13-12-14-18-29)38(51)43-30(23-26(2)3)37(50)44-35(27(4)5)40(53)45(8)25-33-42-20-22-55-33/h12-14,17-18,20,22,26-28,30-32,35-36H,11,15-16,19,21,23-25H2,1-10H3,(H,43,51)(H,44,50)/t30-,31-,32-,35-,36-/m0/s1

> <Ligand InChI Key>
CHXLGCMMIDZPRB-XGQIDOAOSA-N

> <BindingDB MonomerID>
50450893

> <BindingDB Ligand Name>
CHEMBL4207391

> <Target Name>
Sterol O-acyltransferase 2

> <Target Source Organism According to Curator or DataSource>


> <Ki (nM)>


> <IC50 (nM)>
 9900

> <Kd (nM)>


> <EC50 (nM)>


> <kon (M-1-s-1)>


> <koff (s-1)>


> <pH>


> <Temp (C)>


> <Curation/DataSource>
ChEMBL

> <Article DOI>
10.1021/acs.jnatprod.7b00137

> <BindingDB Entry DOI>
10.7270/Q2251MS3

> <PMID>
28294609

> <PubChem AID>


> <Patent Number>


> <Authors>
Iwasaki, A; Tadenuma, T; Sumimoto, S; Ohshiro, T; Ozaki, K; Kobayashi, K; Teruya, T; Tomoda, H; Suenaga, K

> <Institution>
Keio University

> <Link to Ligand in BindingDB>
http://www.bindingdb.org/bind/chemsearch/marvin/MolStructure.jsp?monomerid=50450893

> <Link to Target in BindingDB>
http://www.bindingdb.org/jsp/dbsearch/PrimarySearch_ki.jsp?energyterm=kJ/mole&tag=pol&polymerid=50007205&target=Sterol+O-acyltransferase+2&column=ki&startPg=0&Increment=50&submit=Search

> <Link to Ligand-Target Pair in BindingDB>
http://www.bindingdb.org/jsp/dbsearch/PrimarySearch_ki.jsp?energyterm=kJ/mole&tag=r21&monomerid=50450893&enzyme=Sterol+O-acyltransferase+2&column=ki&startPg=0&Increment=50&submit=Search

> <Ligand HET ID in PDB>


> <PDB ID(s) for Ligand-Target Complex>


> <PubChem CID>
139589700

> <PubChem SID>
433920235

> <ChEBI ID of Ligand>


> <ChEMBL ID of Ligand>


> <DrugBank ID of Ligand>


> <IUPHAR_GRAC ID of Ligand>


> <KEGG ID of Ligand>


> <ZINC ID of Ligand>


> <Number of Protein Chains in Target (>1 implies a multichain complex)>
1

> <BindingDB Target Chain Sequence>
MEPGGARLRLQRTEGPGGEREHQPCRDGNTETHRAPDLVKWTRHMEAVKAQLLEQAQGQLRELLDRAMWEAIQSYPSQDKPPPLPPPDSLSRTQEPSLGKQKVFIIRKSLLDELMEVQHFRTIYHMFIAGLCVFIISTLAIDFIDEGRLLLEFDLLIFSFGQLPLALVTWVPMFLSTLLAPYQALRLWARPGARGTWTLGAGLGCALLAAHALVLCALPVHVAVEHQLPPASRCVLVFEQVRFLMKSYSFLREAVPGTLRARRGEGIQAPSFSSYLYFLFCPTLIYRETYPRTPYIRWNYVAKNFAQALGCVLYACFILGRLCVPVFANMSREPFSTRALVLSILHATLPGIFMLLLIFFAFLHCWLNAFAEMLRFGDRMFYRDWWNSTSFSNYYRTWNVVVHDWLYSYVYQDGLWLLGAQARGVAMLGVFLVSAVAHEYIFCFVLGFFYPVMLILFLVIGGMLNFMMHDQHTGPAWNVLMWTMLFLGQGIQVSLYCQEWYARRHCPLPQTTFWGLVTPRSWSCHT

> <PDB ID(s) of Target Chain>


> <UniProt (SwissProt) Recommended Name of Target Chain>
Sterol O-acyltransferase 2

> <UniProt (SwissProt) Entry Name of Target Chain>
ACAT-2

> <UniProt (SwissProt) Primary ID of Target Chain>
O77759

> <UniProt (SwissProt) Secondary ID(s) of Target Chain>


> <UniProt (SwissProt) Alternative ID(s) of Target Chain>


> <UniProt (TrEMBL) Submitted Name of Target Chain>


> <UniProt (TrEMBL) Entry Name of Target Chain>


> <UniProt (TrEMBL) Primary ID of Target Chain>


> <UniProt (TrEMBL) Secondary ID(s) of Target Chain>


> <UniProt (TrEMBL) Alternative ID(s) of Target Chain>


$$$$

  SciTegic09261414462D

 35 39  0  0  0  0            999 V2000
   16.5130   -8.9437    0.0000 C   0  0  2  0  0  0
   17.3013   -8.7291    0.0000 C   0  0
   17.5085   -7.9435    0.0000 C   0  0
   16.9305   -7.3669    0.0000 C   0  0  2  0  0  0
   16.1422   -7.5815    0.0000 C   0  0
   15.9319   -8.3727    0.0000 C   0  0
   14.4494  -11.2591    0.0000 C   0  0
   13.6322  -11.2591    0.0000 C   0  0
   14.0408  -11.9668    0.0000 C   0  0
   10.8037  -10.4501    0.0000 N   0  0
   10.8025  -11.2696    0.0000 C   0  0
   11.5106  -11.6786    0.0000 N   0  0
   11.5088  -10.0412    0.0000 C   0  0
   12.2174  -10.4465    0.0000 C   0  0
   12.2182  -11.2655    0.0000 C   0  0
   12.9267  -11.6726    0.0000 O   0  0
   13.6302  -10.4396    0.0000 C   0  0
   12.9211  -10.0363    0.0000 N   0  0
   14.3354  -10.0267    0.0000 C   0  0
   11.5063   -9.2241    0.0000 N   0  0
   15.0429  -10.4345    0.0000 C   0  0
   15.0280   -8.8001    0.0000 C   0  0
   14.3262   -9.2146    0.0000 C   0  0
   10.0945  -11.6777    0.0000 C   0  0
    9.3871  -11.2685    0.0000 F   0  0
   10.0938  -12.4949    0.0000 F   0  0
    9.3812  -12.0804    0.0000 F   0  0
   15.7431   -9.2042    0.0000 C   0  0
   15.7491  -10.0197    0.0000 C   0  0
   16.5265  -10.2661    0.0000 C   0  0
   17.0011   -9.6028    0.0000 C   0  0
   17.1399   -6.5770    0.0000 C   0  0
   17.9287   -6.3634    0.0000 C   0  0
   18.5113   -6.9380    0.0000 O   0  0
   18.1413   -5.5717    0.0000 O   0  0
  1  2  1  0
  1  6  1  0
  2  3  1  0
  3  4  1  0
  4  5  1  0
  5  6  1  0
  8  7  1  0
  9  8  1  0
 10 11  2  0
 11 12  1  0
 12 15  2  0
 14 13  2  0
 13 10  1  0
 14 15  1  0
 15 16  1  0
 16  8  1  0
  8 17  1  0
 17 18  2  0
 18 14  1  0
 17 19  1  0
 13 20  1  0
 19 21  2  0
 21 29  1  0
 28 22  1  0
 22 23  2  0
 23 19  1  0
 11 24  1  0
 24 25  1  0
 24 26  1  0
 24 27  1  0
 28 29  2  0
 29 30  1  0
 30 31  1  0
 31  1  1  0
  1 28  1  1
  4 32  1  6
 32 33  1  0
 33 34  1  0
 33 35  2  0
M  END
> <From>
www.bindingDB.org

> <BindingDB Reactant_set_id>
50081434

> <Ligand InChI>
InChI=1S/C25H27F3N4O3/c1-23(2)19(30-18-20(29)31-22(25(26,27)28)32-21(18)35-23)15-3-4-16-14(12-15)7-10-24(16)8-5-13(6-9-24)11-17(33)34/h3-4,12-13H,5-11H2,1-2H3,(H,33,34)(H2,29,31,32)/t13-,24-

> <Ligand InChI Key>
YFJNLPDVCDNOMJ-OJPDTXNBSA-N

> <BindingDB MonomerID>
50003815

> <BindingDB Ligand Name>
CHEMBL3235321

> <Target Name>
Sterol O-acyltransferase 2

> <Target Source Organism According to Curator or DataSource>


> <Ki (nM)>


> <IC50 (nM)>
>10000

> <Kd (nM)>


> <EC50 (nM)>


> <kon (M-1-s-1)>


> <koff (s-1)>


> <pH>


> <Temp (C)>


> <Curation/DataSource>
ChEMBL

> <Article DOI>
10.1021/jm500135c

> <BindingDB Entry DOI>
10.7270/Q23X886W

> <PMID>
24670009

> <PubChem AID>


> <Patent Number>


> <Authors>
Fox, BM; Sugimoto, K; Iio, K; Yoshida, A; Zhang, JK; Li, K; Hao, X; Labelle, M; Smith, ML; Rubenstein, SM; Ye, G; McMinn, D; Jackson, S; Choi, R; Shan, B; Ma, J; Miao, S; Matsui, T; Ogawa, N; Suzuki, M; Kobayashi, A; Ozeki, H; Okuma, C; Ishii, Y; Tomimoto, D; Furakawa, N; Tanaka, M; Matsushita, M; Takahashi, M; Inaba, T; Sagawa, S; Kayser, F

> <Institution>
Amgen Inc

> <Link to Ligand in BindingDB>
http://www.bindingdb.org/bind/chemsearch/marvin/MolStructure.jsp?monomerid=50003815

> <Link to Target in BindingDB>
http://www.bindingdb.org/jsp/dbsearch/PrimarySearch_ki.jsp?energyterm=kJ/mole&tag=pol&polymerid=7773&target=Sterol+O-acyltransferase+2&column=ki&startPg=0&Increment=50&submit=Search

> <Link to Ligand-Target Pair in BindingDB>
http://www.bindingdb.org/jsp/dbsearch/PrimarySearch_ki.jsp?energyterm=kJ/mole&tag=r21&monomerid=50003815&enzyme=Sterol+O-acyltransferase+2&column=ki&startPg=0&Increment=50&submit=Search

> <Ligand HET ID in PDB>


> <PDB ID(s) for Ligand-Target Complex>


> <PubChem CID>
10435589

> <PubChem SID>
103917739

> <ChEBI ID of Ligand>


> <ChEMBL ID of Ligand>
CHEMBL3235321

> <DrugBank ID of Ligand>


> <IUPHAR_GRAC ID of Ligand>


> <KEGG ID of Ligand>


> <ZINC ID of Ligand>
ZINC27433523

> <Number of Protein Chains in Target (>1 implies a multichain complex)>
1

> <BindingDB Target Chain Sequence>
MEPGGARLRLQRTEGLGGERERQPCGDGNTETHRAPDLVQWTRHMEAVKAQLLEQAQGQLRELLDRAMREAIQSYPSQDKPLPPPPPGSLSRTQEPSLGKQKVFIIRKSLLDELMEVQHFRTIYHMFIAGLCVFIISTLAIDFIDEGRLLLEFDLLIFSFGQLPLALVTWVPMFLSTLLAPYQALRLWARGTWTQATGLGCALLAAHAVVLCALPVHVAVEHQLPPASRCVLVFEQVRFLMKSYSFLREAVPGTLRARRGEGIQAPSFSSYLYFLFCPTLIYRETYPRTPYVRWNYVAKNFAQALGCVLYACFILGRLCVPVFANMSREPFSTRALVLSILHATLPGIFMLLLIFFAFLHCWLNAFAEMLRFGDRMFYRDWWNSTSFSNYYRTWNVVVHDWLYSYVYQDGLRLLGARARGVAMLGVFLVSAVAHEYIFCFVLGFFYPVMLILFLVIGGMLNFMMHDQRTGPAWNVLMWTMLFLGQGIQVSLYCQEWYARRHCPLPQATFWGLVTPRSWSCHT

> <PDB ID(s) of Target Chain>


> <UniProt (SwissProt) Recommended Name of Target Chain>
Sterol O-acyltransferase 2

> <UniProt (SwissProt) Entry Name of Target Chain>
ACAT-2

> <UniProt (SwissProt) Primary ID of Target Chain>
O75908

> <UniProt (SwissProt) Secondary ID(s) of Target Chain>
F5H7W4 I6L9H9 Q4VB99 Q4VBA1 Q96TD4 Q9UNR2

> <UniProt (SwissProt) Alternative ID(s) of Target Chain>


> <UniProt (TrEMBL) Submitted Name of Target Chain>


> <UniProt (TrEMBL) Entry Name of Target Chain>


> <UniProt (TrEMBL) Primary ID of Target Chain>


> <UniProt (TrEMBL) Secondary ID(s) of Target Chain>


> <UniProt (TrEMBL) Alternative ID(s) of Target Chain>


$$$$

     RDKit          2D

 38 41  0  0  0  0  0  0  0  0999 V2000
   18.4709   -8.9001    0.0000 C   0  0  0  0  0  0  0  0  0  0  0  0
   17.8876   -9.4876    0.0000 C   0  0  0  0  0  0  0  0  0  0  0  0
   18.6881   -9.6990    0.0000 C   0  0  0  0  0  0  0  0  0  0  0  0
   17.1743   -9.0756    0.0000 C   0  0  0  0  0  0  0  0  0  0  0  0
   17.8887  -10.3131    0.0000 C   0  0  0  0  0  0  0  0  0  0  0  0
   17.1743  -10.7256    0.0000 C   0  0  0  0  0  0  0  0  0  0  0  0
   16.4598  -10.3131    0.0000 C   0  0  0  0  0  0  0  0  0  0  0  0
   15.7453  -10.7256    0.0000 C   0  0  0  0  0  0  0  0  0  0  0  0
   15.0309  -10.3131    0.0000 C   0  0  0  0  0  0  0  0  0  0  0  0
   15.0309   -9.4881    0.0000 C   0  0  0  0  0  0  0  0  0  0  0  0
   15.7453   -9.0756    0.0000 C   0  0  0  0  0  0  0  0  0  0  0  0
   16.4598   -9.4881    0.0000 C   0  0  0  0  0  0  0  0  0  0  0  0
   14.3164  -10.7256    0.0000 C   0  0  0  0  0  0  0  0  0  0  0  0
   14.3164  -11.5506    0.0000 N   0  0  0  0  0  0  0  0  0  0  0  0
   13.6019  -11.9631    0.0000 C   0  0  0  0  0  0  0  0  0  0  0  0
   12.8874  -11.5506    0.0000 C   0  0  0  0  0  0  0  0  0  0  0  0
   12.8874  -10.7256    0.0000 N   0  0  0  0  0  0  0  0  0  0  0  0
   13.6019  -10.3131    0.0000 C   0  0  0  0  0  0  0  0  0  0  0  0
   12.1729  -11.9631    0.0000 N   0  0  0  0  0  0  0  0  0  0  0  0
   11.4584  -11.5506    0.0000 C   0  0  0  0  0  0  0  0  0  0  0  0
   11.4584  -10.7256    0.0000 O   0  0  0  0  0  0  0  0  0  0  0  0
   10.7440  -11.9631    0.0000 N   0  0  0  0  0  0  0  0  0  0  0  0
   10.0295  -11.5506    0.0000 C   0  0  0  0  0  0  0  0  0  0  0  0
    9.3150  -11.9631    0.0000 C   0  0  0  0  0  0  0  0  0  0  0  0
    8.6006  -11.5506    0.0000 C   0  0  0  0  0  0  0  0  0  0  0  0
    8.6006  -10.7256    0.0000 C   0  0  0  0  0  0  0  0  0  0  0  0
    9.3150  -10.3131    0.0000 C   0  0  0  0  0  0  0  0  0  0  0  0
   10.0295  -10.7256    0.0000 C   0  0  0  0  0  0  0  0  0  0  0  0
   17.1743   -8.2505    0.0000 O   0  0  0  0  0  0  0  0  0  0  0  0
   19.2686   -9.1108    0.0000 C   0  0  0  0  0  0  0  0  0  0  0  0
   19.8499   -8.5253    0.0000 O   0  0  0  0  0  0  0  0  0  0  0  0
   19.4849   -9.9068    0.0000 O   0  0  0  0  0  0  0  0  0  0  0  0
   18.9044  -10.4951    0.0000 C   0  0  0  0  0  0  0  0  0  0  0  0
   18.3231  -11.0805    0.0000 F   0  0  0  0  0  0  0  0  0  0  0  0
   19.7021  -10.7058    0.0000 F   0  0  0  0  0  0  0  0  0  0  0  0
   19.1168  -11.2876    0.0000 F   0  0  0  0  0  0  0  0  0  0  0  0
    7.8861  -11.9631    0.0000 F   0  0  0  0  0  0  0  0  0  0  0  0
    7.8861  -10.3131    0.0000 F   0  0  0  0  0  0  0  0  0  0  0  0
  2  1  1  0
  2  3  1  1
  4  2  1  0
  2  5  1  0
  5  6  1  0
  6  7  1  0
  7  8  1  0
  8  9  2  0
  9 10  1  0
 10 11  2  0
 11 12  1  0
  4 12  1  0
  7 12  2  0
 13 14  1  0
 14 15  2  0
 15 16  1  0
 16 17  2  0
 17 18  1  0
 13 18  2  0
 19 20  1  0
 20 21  2  0
 20 22  1  0
 23 24  1  0
 24 25  2  0
 25 26  1  0
 26 27  2  0
 27 28  1  0
 23 28  2  0
 22 23  1  0
 16 19  1  0
  9 13  1  0
  4 29  2  0
  1 30  1  0
 30 31  2  0
 30 32  1  0
  3 33  1  0
 33 34  1  0
 33 35  1  0
 33 36  1  0
 25 37  1  0
 26 38  1  0
M  END
> <From>
www.bindingDB.org

> <BindingDB Reactant_set_id>
51013650

> <Ligand InChI>
InChI=1S/C25H19F5N4O4/c26-17-4-2-15(8-18(17)27)33-23(38)34-20-11-31-19(10-32-20)14-1-3-16-13(7-14)5-6-24(22(16)37,9-21(35)36)12-25(28,29)30/h1-4,7-8,10-11H,5-6,9,12H2,(H,35,36)(H2,32,33,34,38)/t24-/m0/s1

> <Ligand InChI Key>
OTKTZEZTFCAULO-DEOSSOPVSA-N

> <BindingDB MonomerID>
50287310

> <BindingDB Ligand Name>
CHEMBL4173715

> <Target Name>
Sterol O-acyltransferase 2

> <Target Source Organism According to Curator or DataSource>


> <Ki (nM)>


> <IC50 (nM)>
>10000

> <Kd (nM)>


> <EC50 (nM)>


> <kon (M-1-s-1)>


> <koff (s-1)>


> <pH>


> <Temp (C)>


> <Curation/DataSource>
ChEMBL

> <Article DOI>
10.1021/acsmedchemlett.7b00450

> <BindingDB Entry DOI>
10.7270/Q2V127C9

> <PMID>
29456796

> <PubChem AID>


> <Patent Number>


> <Authors>
Cheung, M; Tangirala, RS; Bethi, SR; Joshi, HV; Ariazi, JL; Tirunagaru, VG; Kumar, S

> <Institution>
GlaxoSmithKline

> <Link to Ligand in BindingDB>
http://www.bindingdb.org/bind/chemsearch/marvin/MolStructure.jsp?monomerid=50287310

> <Link to Target in BindingDB>
http://www.bindingdb.org/jsp/dbsearch/PrimarySearch_ki.jsp?energyterm=kJ/mole&tag=pol&polymerid=7773&target=Sterol+O-acyltransferase+2&column=ki&startPg=0&Increment=50&submit=Search

> <Link to Ligand-Target Pair in BindingDB>
http://www.bindingdb.org/jsp/dbsearch/PrimarySearch_ki.jsp?energyterm=kJ/mole&tag=r21&monomerid=50287310&enzyme=Sterol+O-acyltransferase+2&column=ki&startPg=0&Increment=50&submit=Search

> <Ligand HET ID in PDB>


> <PDB ID(s) for Ligand-Target Complex>


> <PubChem CID>
45259929

> <PubChem SID>
104128881

> <ChEBI ID of Ligand>


> <ChEMBL ID of Ligand>


> <DrugBank ID of Ligand>


> <IUPHAR_GRAC ID of Ligand>


> <KEGG ID of Ligand>


> <ZINC ID of Ligand>
ZINC29333996

> <Number of Protein Chains in Target (>1 implies a multichain complex)>
1

> <BindingDB Target Chain Sequence>
MEPGGARLRLQRTEGLGGERERQPCGDGNTETHRAPDLVQWTRHMEAVKAQLLEQAQGQLRELLDRAMREAIQSYPSQDKPLPPPPPGSLSRTQEPSLGKQKVFIIRKSLLDELMEVQHFRTIYHMFIAGLCVFIISTLAIDFIDEGRLLLEFDLLIFSFGQLPLALVTWVPMFLSTLLAPYQALRLWARGTWTQATGLGCALLAAHAVVLCALPVHVAVEHQLPPASRCVLVFEQVRFLMKSYSFLREAVPGTLRARRGEGIQAPSFSSYLYFLFCPTLIYRETYPRTPYVRWNYVAKNFAQALGCVLYACFILGRLCVPVFANMSREPFSTRALVLSILHATLPGIFMLLLIFFAFLHCWLNAFAEMLRFGDRMFYRDWWNSTSFSNYYRTWNVVVHDWLYSYVYQDGLRLLGARARGVAMLGVFLVSAVAHEYIFCFVLGFFYPVMLILFLVIGGMLNFMMHDQRTGPAWNVLMWTMLFLGQGIQVSLYCQEWYARRHCPLPQATFWGLVTPRSWSCHT

> <PDB ID(s) of Target Chain>


> <UniProt (SwissProt) Recommended Name of Target Chain>
Sterol O-acyltransferase 2

> <UniProt (SwissProt) Entry Name of Target Chain>
ACAT-2

> <UniProt (SwissProt) Primary ID of Target Chain>
O75908

> <UniProt (SwissProt) Secondary ID(s) of Target Chain>
F5H7W4 I6L9H9 Q4VB99 Q4VBA1 Q96TD4 Q9UNR2

> <UniProt (SwissProt) Alternative ID(s) of Target Chain>


> <UniProt (TrEMBL) Submitted Name of Target Chain>


> <UniProt (TrEMBL) Entry Name of Target Chain>


> <UniProt (TrEMBL) Primary ID of Target Chain>


> <UniProt (TrEMBL) Secondary ID(s) of Target Chain>


> <UniProt (TrEMBL) Alternative ID(s) of Target Chain>


$$$$

  Mrv0541 11241413222D          

 27 29  0  0  0  0            999 V2000
   35.7814   -3.1833    0.0000 C   0  0  0  0  0  0  0  0  0  0  0  0
   35.7803   -4.0106    0.0000 C   0  0  0  0  0  0  0  0  0  0  0  0
   36.4950   -4.4235    0.0000 C   0  0  0  0  0  0  0  0  0  0  0  0
   37.2115   -4.0101    0.0000 C   0  0  0  0  0  0  0  0  0  0  0  0
   37.2087   -3.1797    0.0000 C   0  0  0  0  0  0  0  0  0  0  0  0
   36.4932   -2.7705    0.0000 C   0  0  0  0  0  0  0  0  0  0  0  0
   37.9229   -2.7668    0.0000 C   0  0  2  0  0  0  0  0  0  0  0  0
   38.6388   -3.1787    0.0000 C   0  0  0  0  0  0  0  0  0  0  0  0
   39.3496   -2.7672    0.0000 C   0  0  0  0  0  0  0  0  0  0  0  0
   39.3507   -1.9418    0.0000 C   0  0  2  0  0  0  0  0  0  0  0  0
   38.6349   -1.5298    0.0000 C   0  0  0  0  0  0  0  0  0  0  0  0
   37.9179   -1.9432    0.0000 C   0  0  0  0  0  0  0  0  0  0  0  0
   35.0673   -4.4228    0.0000 C   0  0  0  0  0  0  0  0  0  0  0  0
   34.3530   -4.0081    0.0000 N   0  0  0  0  0  0  0  0  0  0  0  0
   33.6386   -4.4193    0.0000 C   0  0  0  0  0  0  0  0  0  0  0  0
   33.6375   -5.2452    0.0000 C   0  0  0  0  0  0  0  0  0  0  0  0
   34.3567   -5.6581    0.0000 N   0  0  0  0  0  0  0  0  0  0  0  0
   35.0681   -5.2445    0.0000 C   0  0  0  0  0  0  0  0  0  0  0  0
   40.0652   -1.5293    0.0000 C   0  0  0  0  0  0  0  0  0  0  0  0
   40.7796   -1.9418    0.0000 C   0  0  0  0  0  0  0  0  0  0  0  0
   41.4941   -1.5294    0.0000 O   0  0  0  0  0  0  0  0  0  0  0  0
   40.7796   -2.7668    0.0000 O   0  0  0  0  0  0  0  0  0  0  0  0
   32.9247   -4.0059    0.0000 C   0  0  0  0  0  0  0  0  0  0  0  0
   32.9258   -3.1809    0.0000 O   0  0  0  0  0  0  0  0  0  0  0  0
   32.2097   -4.4175    0.0000 N   0  0  0  0  0  0  0  0  0  0  0  0
   32.9233   -5.6580    0.0000 C   0  0  0  0  0  0  0  0  0  0  0  0
   35.7833   -5.6556    0.0000 C   0  0  0  0  0  0  0  0  0  0  0  0
  1  2  2  0  0  0  0
  2  3  1  0  0  0  0
  3  4  2  0  0  0  0
  4  5  1  0  0  0  0
  5  6  2  0  0  0  0
  6  1  1  0  0  0  0
  7  8  1  0  0  0  0
  7 12  1  0  0  0  0
  8  9  1  0  0  0  0
 10  9  1  0  0  0  0
 10 11  1  0  0  0  0
 11 12  1  0  0  0  0
  7  5  1  1  0  0  0
 13 14  2  0  0  0  0
 14 15  1  0  0  0  0
 15 16  2  0  0  0  0
 16 17  1  0  0  0  0
 17 18  2  0  0  0  0
 18 13  1  0  0  0  0
  2 13  1  0  0  0  0
 10 19  1  6  0  0  0
 19 20  1  0  0  0  0
 20 21  1  0  0  0  0
 20 22  2  0  0  0  0
 15 23  1  0  0  0  0
 23 24  2  0  0  0  0
 23 25  1  0  0  0  0
 16 26  1  0  0  0  0
 18 27  1  0  0  0  0
M  END
> <From>
www.bindingDB.org

> <BindingDB Reactant_set_id>
50974874

> <Ligand InChI>
InChI=1S/C21H25N3O3/c1-12-19(24-20(21(22)27)13(2)23-12)17-9-7-16(8-10-17)15-5-3-14(4-6-15)11-18(25)26/h7-10,14-15H,3-6,11H2,1-2H3,(H2,22,27)(H,25,26)/t14-,15-

> <Ligand InChI Key>
YXFNPRHZMOGREC-SHTZXODSSA-N

> <BindingDB MonomerID>
50399710

> <BindingDB Ligand Name>
CHEMBL2178953

> <Target Name>
Sterol O-acyltransferase 2

> <Target Source Organism According to Curator or DataSource>


> <Ki (nM)>


> <IC50 (nM)>
>10000

> <Kd (nM)>


> <EC50 (nM)>


> <kon (M-1-s-1)>


> <koff (s-1)>


> <pH>


> <Temp (C)>


> <Curation/DataSource>
ChEMBL

> <Article DOI>
10.1021/jm301296t

> <BindingDB Entry DOI>
10.7270/Q2XD12T3

> <PMID>
23116186

> <PubChem AID>


> <Patent Number>


> <Authors>
Barlind, JG; Bauer, UA; Birch, AM; Birtles, S; Buckett, LK; Butlin, RJ; Davies, RD; Eriksson, JW; Hammond, CD; Hovland, R; Johannesson, P; Johansson, MJ; Kemmitt, PD; Lindmark, BT; Morentin Gutierrez, P; Noeske, TA; Nordin, A; O'Donnell, CJ; Petersson, AU; Redzic, A; Turnbull, AV; Vinblad, J

> <Institution>
AstraZeneca

> <Link to Ligand in BindingDB>
http://www.bindingdb.org/bind/chemsearch/marvin/MolStructure.jsp?monomerid=50399710

> <Link to Target in BindingDB>
http://www.bindingdb.org/jsp/dbsearch/PrimarySearch_ki.jsp?energyterm=kJ/mole&tag=pol&polymerid=7773&target=Sterol+O-acyltransferase+2&column=ki&startPg=0&Increment=50&submit=Search

> <Link to Ligand-Target Pair in BindingDB>
http://www.bindingdb.org/jsp/dbsearch/PrimarySearch_ki.jsp?energyterm=kJ/mole&tag=r21&monomerid=50399710&enzyme=Sterol+O-acyltransferase+2&column=ki&startPg=0&Increment=50&submit=Search

> <Ligand HET ID in PDB>


> <PDB ID(s) for Ligand-Target Complex>


> <PubChem CID>
42636350

> <PubChem SID>
163348734

> <ChEBI ID of Ligand>


> <ChEMBL ID of Ligand>
CHEMBL2178953

> <DrugBank ID of Ligand>


> <IUPHAR_GRAC ID of Ligand>


> <KEGG ID of Ligand>


> <ZINC ID of Ligand>


> <Number of Protein Chains in Target (>1 implies a multichain complex)>
1

> <BindingDB Target Chain Sequence>
MEPGGARLRLQRTEGLGGERERQPCGDGNTETHRAPDLVQWTRHMEAVKAQLLEQAQGQLRELLDRAMREAIQSYPSQDKPLPPPPPGSLSRTQEPSLGKQKVFIIRKSLLDELMEVQHFRTIYHMFIAGLCVFIISTLAIDFIDEGRLLLEFDLLIFSFGQLPLALVTWVPMFLSTLLAPYQALRLWARGTWTQATGLGCALLAAHAVVLCALPVHVAVEHQLPPASRCVLVFEQVRFLMKSYSFLREAVPGTLRARRGEGIQAPSFSSYLYFLFCPTLIYRETYPRTPYVRWNYVAKNFAQALGCVLYACFILGRLCVPVFANMSREPFSTRALVLSILHATLPGIFMLLLIFFAFLHCWLNAFAEMLRFGDRMFYRDWWNSTSFSNYYRTWNVVVHDWLYSYVYQDGLRLLGARARGVAMLGVFLVSAVAHEYIFCFVLGFFYPVMLILFLVIGGMLNFMMHDQRTGPAWNVLMWTMLFLGQGIQVSLYCQEWYARRHCPLPQATFWGLVTPRSWSCHT

> <PDB ID(s) of Target Chain>


> <UniProt (SwissProt) Recommended Name of Target Chain>
Sterol O-acyltransferase 2

> <UniProt (SwissProt) Entry Name of Target Chain>
ACAT-2

> <UniProt (SwissProt) Primary ID of Target Chain>
O75908

> <UniProt (SwissProt) Secondary ID(s) of Target Chain>
F5H7W4 I6L9H9 Q4VB99 Q4VBA1 Q96TD4 Q9UNR2

> <UniProt (SwissProt) Alternative ID(s) of Target Chain>


> <UniProt (TrEMBL) Submitted Name of Target Chain>


> <UniProt (TrEMBL) Entry Name of Target Chain>


> <UniProt (TrEMBL) Primary ID of Target Chain>


> <UniProt (TrEMBL) Secondary ID(s) of Target Chain>


> <UniProt (TrEMBL) Alternative ID(s) of Target Chain>


$$$$
 
     RDKit          2D

 26 25  0  0  0  0  0  0  0  0999 V2000
   14.4093   -3.3685    0.0000 C   0  0  0  0  0  0  0  0  0  0  0  0
   15.1249   -3.7792    0.0000 C   0  0  0  0  0  0  0  0  0  0  0  0
   15.8403   -3.3685    0.0000 C   0  0  0  0  0  0  0  0  0  0  0  0
   13.6939   -3.7792    0.0000 O   0  0  0  0  0  0  0  0  0  0  0  0
   16.5558   -3.7792    0.0000 C   0  0  0  0  0  0  0  0  0  0  0  0
   17.2656   -4.1899    0.0000 C   0  0  0  0  0  0  0  0  0  0  0  0
   17.9791   -4.6006    0.0000 C   0  0  0  0  0  0  0  0  0  0  0  0
   18.6885   -5.0154    0.0000 C   0  0  0  0  0  0  0  0  0  0  0  0
   19.4020   -5.4261    0.0000 C   0  0  0  0  0  0  0  0  0  0  0  0
   20.1180   -5.0163    0.0000 C   0  0  0  0  0  0  0  0  0  0  0  0
   20.8330   -5.4278    0.0000 C   0  0  0  0  0  0  0  0  0  0  0  0
   20.8320   -6.2533    0.0000 C   0  0  0  0  0  0  0  0  0  0  0  0
   21.5470   -6.6690    0.0000 C   0  0  0  0  0  0  0  0  0  0  0  0
   21.5460   -7.4945    0.0000 C   0  0  0  0  0  0  0  0  0  0  0  0
   22.2630   -6.2550    0.0000 O   0  0  0  0  0  0  0  0  0  0  0  0
   22.2640   -5.4295    0.0000 C   0  0  0  0  0  0  0  0  0  0  0  0
   22.9799   -5.0197    0.0000 C   0  0  0  0  0  0  0  0  0  0  0  0
   21.5489   -5.0180    0.0000 O   0  0  0  0  0  0  0  0  0  0  0  0
   22.9809   -4.1941    0.0000 C   0  0  0  0  0  0  0  0  0  0  0  0
   23.6969   -3.7802    0.0000 C   0  0  0  0  0  0  0  0  0  0  0  0
   22.2659   -3.7785    0.0000 C   0  0  0  0  0  0  0  0  0  0  0  0
   22.2611   -7.9061    0.0000 C   0  0  0  0  0  0  0  0  0  0  0  0
   22.9770   -7.4962    0.0000 O   0  0  0  0  0  0  0  0  0  0  0  0
   23.6920   -7.9078    0.0000 C   0  0  0  0  0  0  0  0  0  0  0  0
   24.4038   -7.4980    0.0000 C   0  0  0  0  0  0  0  0  0  0  0  0
   23.6910   -8.7334    0.0000 O   0  0  0  0  0  0  0  0  0  0  0  0
  1  2  1  0
  2  3  2  0
  1  4  1  0
  3  5  1  0
  5  6  3  0
  6  7  1  0
  7  8  3  0
  8  9  1  0
  9 10  2  0
 10 11  1  0
 11 12  2  0
 12 13  1  0
 13 14  1  0
 13 15  1  0
 15 16  1  0
 16 17  1  0
 16 18  2  0
 17 19  2  0
 19 20  1  0
 19 21  1  0
 14 22  1  0
 22 23  1  0
 23 24  1  0
 24 25  1  0
 24 26  2  0
M  END
> <From>
www.bindingDB.org

> <BindingDB Reactant_set_id>
51346968

> <Ligand InChI>
InChI=1S/C21H24O5/c1-18(2)17-21(24)26-20(14-16-25-19(3)23)13-11-9-7-5-4-6-8-10-12-15-22/h7,9-13,17,20,22H,14-16H2,1-3H3/b9-7+,12-10+,13-11+

> <Ligand InChI Key>
CQDVFBMTEZFKKY-JPSRSCNUSA-N

> <BindingDB MonomerID>
50544939

> <BindingDB Ligand Name>
CHEMBL4645000

> <Target Name>
Sterol O-acyltransferase 2

> <Target Source Organism According to Curator or DataSource>


> <Ki (nM)>


> <IC50 (nM)>
 11500

> <Kd (nM)>


> <EC50 (nM)>


> <kon (M-1-s-1)>


> <koff (s-1)>


> <pH>


> <Temp (C)>


> <Curation/DataSource>
ChEMBL

> <Article DOI>


> <BindingDB Entry DOI>
10.7270/Q2G73J95

> <PMID>
32035699

> <PubChem AID>


> <Patent Number>


> <Authors>
Nur, EAA; Ohshiro, T; Kobayashi, K; Wu, J; Wahyudin, E; Zhang, H; Hayashi, F; Kawagishi, H; Tomoda, H

> <Institution>
Kitasato University

> <Link to Ligand in BindingDB>
http://www.bindingdb.org/bind/chemsearch/marvin/MolStructure.jsp?monomerid=50544939

> <Link to Target in BindingDB>
http://www.bindingdb.org/jsp/dbsearch/PrimarySearch_ki.jsp?energyterm=kJ/mole&tag=pol&polymerid=7773&target=Sterol+O-acyltransferase+2&column=ki&startPg=0&Increment=50&submit=Search

> <Link to Ligand-Target Pair in BindingDB>
http://www.bindingdb.org/jsp/dbsearch/PrimarySearch_ki.jsp?energyterm=kJ/mole&tag=r21&monomerid=50544939&enzyme=Sterol+O-acyltransferase+2&column=ki&startPg=0&Increment=50&submit=Search

> <Ligand HET ID in PDB>


> <PDB ID(s) for Ligand-Target Complex>


> <PubChem CID>
14448076

> <PubChem SID>
442146502

> <ChEBI ID of Ligand>


> <ChEMBL ID of Ligand>


> <DrugBank ID of Ligand>


> <IUPHAR_GRAC ID of Ligand>


> <KEGG ID of Ligand>


> <ZINC ID of Ligand>


> <Number of Protein Chains in Target (>1 implies a multichain complex)>
1

> <BindingDB Target Chain Sequence>
MEPGGARLRLQRTEGLGGERERQPCGDGNTETHRAPDLVQWTRHMEAVKAQLLEQAQGQLRELLDRAMREAIQSYPSQDKPLPPPPPGSLSRTQEPSLGKQKVFIIRKSLLDELMEVQHFRTIYHMFIAGLCVFIISTLAIDFIDEGRLLLEFDLLIFSFGQLPLALVTWVPMFLSTLLAPYQALRLWARGTWTQATGLGCALLAAHAVVLCALPVHVAVEHQLPPASRCVLVFEQVRFLMKSYSFLREAVPGTLRARRGEGIQAPSFSSYLYFLFCPTLIYRETYPRTPYVRWNYVAKNFAQALGCVLYACFILGRLCVPVFANMSREPFSTRALVLSILHATLPGIFMLLLIFFAFLHCWLNAFAEMLRFGDRMFYRDWWNSTSFSNYYRTWNVVVHDWLYSYVYQDGLRLLGARARGVAMLGVFLVSAVAHEYIFCFVLGFFYPVMLILFLVIGGMLNFMMHDQRTGPAWNVLMWTMLFLGQGIQVSLYCQEWYARRHCPLPQATFWGLVTPRSWSCHT

> <PDB ID(s) of Target Chain>


> <UniProt (SwissProt) Recommended Name of Target Chain>
Sterol O-acyltransferase 2

> <UniProt (SwissProt) Entry Name of Target Chain>
ACAT-2

> <UniProt (SwissProt) Primary ID of Target Chain>
O75908

> <UniProt (SwissProt) Secondary ID(s) of Target Chain>
F5H7W4 I6L9H9 Q4VB99 Q4VBA1 Q96TD4 Q9UNR2

> <UniProt (SwissProt) Alternative ID(s) of Target Chain>


> <UniProt (TrEMBL) Submitted Name of Target Chain>


> <UniProt (TrEMBL) Entry Name of Target Chain>


> <UniProt (TrEMBL) Primary ID of Target Chain>


> <UniProt (TrEMBL) Secondary ID(s) of Target Chain>


> <UniProt (TrEMBL) Alternative ID(s) of Target Chain>


$$$$

  SciTegic12221715012D

 27 30  0  0  0  0            999 V2000
   10.5038   -4.3584    0.0000 C   0  0  2  0  0  0
   11.2921   -4.1437    0.0000 C   0  0
   11.4992   -3.3581    0.0000 C   0  0  1  0  0  0
   10.9212   -2.7815    0.0000 C   0  0
   10.1329   -2.9962    0.0000 C   0  0  2  0  0  0
    9.9226   -3.7873    0.0000 O   0  0
    8.3108   -4.6183    0.0000 C   0  0
    8.3097   -5.4379    0.0000 C   0  0
    9.0177   -5.8468    0.0000 C   0  0
    9.0159   -4.2095    0.0000 C   0  0
    9.7246   -4.6147    0.0000 C   0  0
    9.7248   -5.4379    0.0000 C   0  0
   10.5078   -5.6921    0.0000 N   0  0
   10.9915   -5.0259    0.0000 C   0  0
   11.8087   -5.0256    0.0000 O   0  0
    9.5534   -2.4201    0.0000 C   0  0
    8.7647   -2.6339    0.0000 C   0  0
    8.1851   -2.0578    0.0000 C   0  0
   12.2880   -3.1445    0.0000 N   0  0
   12.9259   -3.6531    0.0000 C   0  0
    9.0135   -3.3923    0.0000 Br  0  0
   13.6865   -3.3544    0.0000 C   0  0
   14.3218   -3.8652    0.0000 C   0  0
   15.0819   -3.5672    0.0000 C   0  0
   15.2041   -2.7583    0.0000 C   0  0
   14.5602   -2.2483    0.0000 C   0  0
   13.8027   -2.5491    0.0000 C   0  0
  1  2  1  0
  1  6  1  0
  2  3  1  0
  3  4  1  0
  4  5  1  0
  5  6  1  0
  7  8  2  0
  8  9  1  0
  9 12  2  0
 11 10  2  0
 10  7  1  0
 11 12  1  0
 12 13  1  0
 13 14  1  0
 14  1  1  0
  1 11  1  1
 14 15  2  0
  5 16  1  6
 16 17  1  0
 17 18  1  0
  3 19  1  1
 19 20  1  0
 10 21  1  0
 20 22  1  0
 22 23  2  0
 23 24  1  0
 24 25  2  0
 25 26  1  0
 26 27  2  0
 27 22  1  0
M  END
> <From>
www.bindingDB.org

> <BindingDB Reactant_set_id>
50533672

> <Ligand InChI>
InChI=1S/C22H25BrN2O2/c1-2-7-17-12-16(24-14-15-8-4-3-5-9-15)13-22(27-17)20-18(23)10-6-11-19(20)25-21(22)26/h3-6,8-11,16-17,24H,2,7,12-14H2,1H3,(H,25,26)/t16-,17-,22+/m1/s1

> <Ligand InChI Key>
CYKMIAHUQXPQDP-YVHKJVDXSA-N

> <BindingDB MonomerID>
50204558

> <BindingDB Ligand Name>
CHEMBL3960874

> <Target Name>
Sterol O-acyltransferase 2

> <Target Source Organism According to Curator or DataSource>


> <Ki (nM)>


> <IC50 (nM)>
 12000

> <Kd (nM)>


> <EC50 (nM)>


> <kon (M-1-s-1)>


> <koff (s-1)>


> <pH>


> <Temp (C)>


> <Curation/DataSource>
ChEMBL

> <Article DOI>
10.1016/j.bmcl.2016.11.008

> <BindingDB Entry DOI>
10.7270/Q2D220KD

> <PMID>
27876317

> <PubChem AID>


> <Patent Number>


> <Authors>
Kobayashi, K; Ohshiro, T; Tomoda, H; Yin, F; Cui, HL; Chouthaiwale, PV; Tanaka, F

> <Institution>
Kitasato University

> <Link to Ligand in BindingDB>
http://www.bindingdb.org/bind/chemsearch/marvin/MolStructure.jsp?monomerid=50204558

> <Link to Target in BindingDB>
http://www.bindingdb.org/jsp/dbsearch/PrimarySearch_ki.jsp?energyterm=kJ/mole&tag=pol&polymerid=50007205&target=Sterol+O-acyltransferase+2&column=ki&startPg=0&Increment=50&submit=Search

> <Link to Ligand-Target Pair in BindingDB>
http://www.bindingdb.org/jsp/dbsearch/PrimarySearch_ki.jsp?energyterm=kJ/mole&tag=r21&monomerid=50204558&enzyme=Sterol+O-acyltransferase+2&column=ki&startPg=0&Increment=50&submit=Search

> <Ligand HET ID in PDB>


> <PDB ID(s) for Ligand-Target Complex>


> <PubChem CID>
134155984

> <PubChem SID>
375980545

> <ChEBI ID of Ligand>


> <ChEMBL ID of Ligand>
CHEMBL3960874

> <DrugBank ID of Ligand>


> <IUPHAR_GRAC ID of Ligand>


> <KEGG ID of Ligand>


> <ZINC ID of Ligand>


> <Number of Protein Chains in Target (>1 implies a multichain complex)>
1

> <BindingDB Target Chain Sequence>
MEPGGARLRLQRTEGPGGEREHQPCRDGNTETHRAPDLVKWTRHMEAVKAQLLEQAQGQLRELLDRAMWEAIQSYPSQDKPPPLPPPDSLSRTQEPSLGKQKVFIIRKSLLDELMEVQHFRTIYHMFIAGLCVFIISTLAIDFIDEGRLLLEFDLLIFSFGQLPLALVTWVPMFLSTLLAPYQALRLWARPGARGTWTLGAGLGCALLAAHALVLCALPVHVAVEHQLPPASRCVLVFEQVRFLMKSYSFLREAVPGTLRARRGEGIQAPSFSSYLYFLFCPTLIYRETYPRTPYIRWNYVAKNFAQALGCVLYACFILGRLCVPVFANMSREPFSTRALVLSILHATLPGIFMLLLIFFAFLHCWLNAFAEMLRFGDRMFYRDWWNSTSFSNYYRTWNVVVHDWLYSYVYQDGLWLLGAQARGVAMLGVFLVSAVAHEYIFCFVLGFFYPVMLILFLVIGGMLNFMMHDQHTGPAWNVLMWTMLFLGQGIQVSLYCQEWYARRHCPLPQTTFWGLVTPRSWSCHT

> <PDB ID(s) of Target Chain>


> <UniProt (SwissProt) Recommended Name of Target Chain>
Sterol O-acyltransferase 2

> <UniProt (SwissProt) Entry Name of Target Chain>
ACAT-2

> <UniProt (SwissProt) Primary ID of Target Chain>
O77759

> <UniProt (SwissProt) Secondary ID(s) of Target Chain>


> <UniProt (SwissProt) Alternative ID(s) of Target Chain>


> <UniProt (TrEMBL) Submitted Name of Target Chain>


> <UniProt (TrEMBL) Entry Name of Target Chain>


> <UniProt (TrEMBL) Primary ID of Target Chain>


> <UniProt (TrEMBL) Secondary ID(s) of Target Chain>


> <UniProt (TrEMBL) Alternative ID(s) of Target Chain>


$$$$

  SciTegic09261414462D

 35 38  0  0  0  0            999 V2000
   35.1828   -8.4040    0.0000 C   0  0
   35.5994   -9.1207    0.0000 C   0  0
   36.0118   -8.4015    0.0000 C   0  0
   28.4732  -10.8081    0.0000 C   0  0
   28.4720  -11.6355    0.0000 C   0  0
   29.1868  -12.0484    0.0000 C   0  0
   29.1850  -10.3953    0.0000 N   0  0
   29.9004  -10.8045    0.0000 C   0  0
   29.9012  -11.6313    0.0000 C   0  0
   30.6165  -12.0423    0.0000 C   0  0
   31.3315  -11.6276    0.0000 C   0  0
   31.3267  -10.7975    0.0000 C   0  0
   30.6108  -10.3904    0.0000 C   0  0
   29.1888  -12.8734    0.0000 C   0  0
   28.4752  -13.2875    0.0000 N   0  0
   29.9041  -13.2841    0.0000 O   0  0
   27.7598  -12.8767    0.0000 C   0  0
   27.7583  -12.0524    0.0000 C   0  0
   27.0438  -11.6417    0.0000 C   0  0
   26.3293  -12.0558    0.0000 C   0  0
   26.3339  -12.8852    0.0000 C   0  0
   27.0490  -13.2921    0.0000 C   0  0
   32.0386  -10.3807    0.0000 C   0  0
   32.7565  -10.7944    0.0000 C   0  0
   33.4679  -10.3783    0.0000 C   0  0
   33.4634   -9.5524    0.0000 C   0  0
   32.7413   -9.1444    0.0000 N   0  3
   32.0328   -9.5630    0.0000 C   0  0
   27.7586  -10.3959    0.0000 C   0  0
   34.1748   -9.1346    0.0000 O   0  0
   34.8923   -9.5418    0.0000 C   0  0
   36.3211   -9.5312    0.0000 C   0  0
   36.3309  -10.3561    0.0000 O   0  0
   37.0361   -9.1133    0.0000 O   0  0
   32.7334   -8.3195    0.0000 O   0  5
  2  1  1  0
  3  2  1  0
  4  5  2  0
  5  6  1  0
  6  9  2  0
  8  7  2  0
  7  4  1  0
  8  9  1  0
  9 10  1  0
 10 11  2  0
 11 12  1  0
 12 13  2  0
 13  8  1  0
  6 14  1  0
 14 15  1  0
 14 16  2  0
 15 17  1  0
 17 18  2  0
 18 19  1  0
 19 20  2  0
 20 21  1  0
 21 22  2  0
 22 17  1  0
 12 23  1  0
 23 24  2  0
 24 25  1  0
 25 26  2  0
 26 27  1  0
 27 28  2  0
 28 23  1  0
  4 29  1  0
 26 30  1  0
 30 31  1  0
 31  2  1  0
  2 32  1  0
 32 33  1  0
 32 34  2  0
 27 35  1  0
M  CHG  2  27   1  35  -1
M  END
> <From>
www.bindingDB.org

> <BindingDB Reactant_set_id>
50088732

> <Ligand InChI>
InChI=1S/C27H25N3O5/c1-17-13-22(25(31)29-20-7-5-4-6-8-20)21-11-9-18(14-23(21)28-17)19-10-12-24(30(34)15-19)35-16-27(2,3)26(32)33/h4-15H,16H2,1-3H3,(H,29,31)(H,32,33)

> <Ligand InChI Key>
CENLJZLJQAZGOA-UHFFFAOYSA-N

> <BindingDB MonomerID>
50009446

> <BindingDB Ligand Name>
CHEMBL3233891

> <Target Name>
Sterol O-acyltransferase 2

> <Target Source Organism According to Curator or DataSource>


> <Ki (nM)>


> <IC50 (nM)>
 13300

> <Kd (nM)>


> <EC50 (nM)>


> <kon (M-1-s-1)>


> <koff (s-1)>


> <pH>


> <Temp (C)>


> <Curation/DataSource>
ChEMBL

> <Article DOI>
10.1016/j.bmcl.2014.02.028

> <BindingDB Entry DOI>
10.7270/Q2DR2X19

> <PMID>
24618302

> <PubChem AID>


> <Patent Number>


> <Authors>
Zhou, G; Ting, PC; Wishart, G; Zorn, N; Aslanian, RG; Lin, M; Smith, M; Walker, SS; Cook, J; Van Heek, M; Lachowicz, J

> <Institution>
Merck Research Laboratories

> <Link to Ligand in BindingDB>
http://www.bindingdb.org/bind/chemsearch/marvin/MolStructure.jsp?monomerid=50009446

> <Link to Target in BindingDB>
http://www.bindingdb.org/jsp/dbsearch/PrimarySearch_ki.jsp?energyterm=kJ/mole&tag=pol&polymerid=7773&target=Sterol+O-acyltransferase+2&column=ki&startPg=0&Increment=50&submit=Search

> <Link to Ligand-Target Pair in BindingDB>
http://www.bindingdb.org/jsp/dbsearch/PrimarySearch_ki.jsp?energyterm=kJ/mole&tag=r21&monomerid=50009446&enzyme=Sterol+O-acyltransferase+2&column=ki&startPg=0&Increment=50&submit=Search

> <Ligand HET ID in PDB>


> <PDB ID(s) for Ligand-Target Complex>


> <PubChem CID>
90655569

> <PubChem SID>
103922458

> <ChEBI ID of Ligand>


> <ChEMBL ID of Ligand>
CHEMBL3233891

> <DrugBank ID of Ligand>


> <IUPHAR_GRAC ID of Ligand>


> <KEGG ID of Ligand>


> <ZINC ID of Ligand>
ZINC13823688

> <Number of Protein Chains in Target (>1 implies a multichain complex)>
1

> <BindingDB Target Chain Sequence>
MEPGGARLRLQRTEGLGGERERQPCGDGNTETHRAPDLVQWTRHMEAVKAQLLEQAQGQLRELLDRAMREAIQSYPSQDKPLPPPPPGSLSRTQEPSLGKQKVFIIRKSLLDELMEVQHFRTIYHMFIAGLCVFIISTLAIDFIDEGRLLLEFDLLIFSFGQLPLALVTWVPMFLSTLLAPYQALRLWARGTWTQATGLGCALLAAHAVVLCALPVHVAVEHQLPPASRCVLVFEQVRFLMKSYSFLREAVPGTLRARRGEGIQAPSFSSYLYFLFCPTLIYRETYPRTPYVRWNYVAKNFAQALGCVLYACFILGRLCVPVFANMSREPFSTRALVLSILHATLPGIFMLLLIFFAFLHCWLNAFAEMLRFGDRMFYRDWWNSTSFSNYYRTWNVVVHDWLYSYVYQDGLRLLGARARGVAMLGVFLVSAVAHEYIFCFVLGFFYPVMLILFLVIGGMLNFMMHDQRTGPAWNVLMWTMLFLGQGIQVSLYCQEWYARRHCPLPQATFWGLVTPRSWSCHT

> <PDB ID(s) of Target Chain>


> <UniProt (SwissProt) Recommended Name of Target Chain>
Sterol O-acyltransferase 2

> <UniProt (SwissProt) Entry Name of Target Chain>
ACAT-2

> <UniProt (SwissProt) Primary ID of Target Chain>
O75908

> <UniProt (SwissProt) Secondary ID(s) of Target Chain>
F5H7W4 I6L9H9 Q4VB99 Q4VBA1 Q96TD4 Q9UNR2

> <UniProt (SwissProt) Alternative ID(s) of Target Chain>


> <UniProt (TrEMBL) Submitted Name of Target Chain>


> <UniProt (TrEMBL) Entry Name of Target Chain>


> <UniProt (TrEMBL) Primary ID of Target Chain>


> <UniProt (TrEMBL) Secondary ID(s) of Target Chain>


> <UniProt (TrEMBL) Alternative ID(s) of Target Chain>


$$$$
 
  Mrv0541 11221409282D          

 23 25  0  0  0  0            999 V2000
   -4.8754    1.4043    0.0000 C   0  0  0  0  0  0  0  0  0  0  0  0
   -4.8754    0.5793    0.0000 C   0  0  0  0  0  0  0  0  0  0  0  0
   -4.1634    0.1708    0.0000 C   0  0  0  0  0  0  0  0  0  0  0  0
   -4.1634    1.8210    0.0000 C   0  0  0  0  0  0  0  0  0  0  0  0
   -3.4502    0.5793    0.0000 C   0  0  2  0  0  0  0  0  0  0  0  0
   -2.7392    0.1699    0.0000 C   0  0  0  0  0  0  0  0  0  0  0  0
   -2.0245    0.5811    0.0000 C   0  0  0  0  0  0  0  0  0  0  0  0
   -2.0256    1.4061    0.0000 C   0  0  1  0  0  0  0  0  0  0  0  0
   -2.7413    1.8201    0.0000 C   0  0  1  0  0  0  0  0  0  0  0  0
   -2.9711    2.6314    0.0000 C   0  0  0  0  0  0  0  0  0  0  0  0
   -2.3335    2.5377    0.0000 C   0  0  0  0  0  0  0  0  0  0  0  0
   -1.6077    2.9302    0.0000 C   0  0  0  0  0  0  0  0  0  0  0  0
   -0.9077    2.4961    0.0000 C   0  0  0  0  0  0  0  0  0  0  0  0
   -0.1824    2.8879    0.0000 C   0  0  0  0  0  0  0  0  0  0  0  0
   -0.1589    3.7135    0.0000 C   0  0  0  0  0  0  0  0  0  0  0  0
   -0.8667    4.1466    0.0000 C   0  0  0  0  0  0  0  0  0  0  0  0
   -1.5890    3.7516    0.0000 C   0  0  0  0  0  0  0  0  0  0  0  0
   -2.2937    4.1866    0.0000 O   0  0  0  0  0  0  0  0  0  0  0  0
    0.5200    2.4552    0.0000 O   0  0  0  0  0  0  0  0  0  0  0  0
   -1.3111    1.8189    0.0000 C   0  0  0  0  0  0  0  0  0  0  0  0
   -3.4545   -0.2417    0.0000 C   0  0  0  0  0  0  0  0  0  0  0  0
   -4.1636   -0.6543    0.0000 C   0  0  0  0  0  0  0  0  0  0  0  0
   -3.4513    1.4043    0.0000 C   0  0  2  0  0  0  0  0  0  0  0  0
  9 10  1  1  0  0  0
  9 11  1  6  0  0  0
  1  2  1  0  0  0  0
 11 12  1  0  0  0  0
  1  4  1  0  0  0  0
 12 13  2  0  0  0  0
  2  3  2  0  0  0  0
 13 14  1  0  0  0  0
  5  3  1  0  0  0  0
 14 15  2  0  0  0  0
 23  4  1  1  0  0  0
 15 16  1  0  0  0  0
  9 23  1  0  0  0  0
 16 17  2  0  0  0  0
 17 12  1  0  0  0  0
  5  6  1  0  0  0  0
 17 18  1  0  0  0  0
  6  7  1  0  0  0  0
 14 19  1  0  0  0  0
  8  7  1  0  0  0  0
  8 20  1  1  0  0  0
  9  8  1  0  0  0  0
  5 21  1  1  0  0  0
 23  5  1  0  0  0  0
  3 22  1  0  0  0  0
M  END
> <From>
www.bindingDB.org

> <BindingDB Reactant_set_id>
51253369

> <Ligand InChI>
InChI=1S/C21H30O2/c1-14-6-5-7-19-20(14,3)11-10-15(2)21(19,4)13-16-12-17(22)8-9-18(16)23/h6,8-9,12,15,19,22-23H,5,7,10-11,13H2,1-4H3/t15-,19+,20+,21+/m0/s1

> <Ligand InChI Key>
JSPUCPNQXKTYRO-LWILDLIXSA-N

> <BindingDB MonomerID>
50242257

> <BindingDB Ligand Name>
2-((1R,2S,4aS)-1,2,4a,5-Tetramethyl-1,2,3,4,4a,7,8,8a-octahydro-naphthalen-1-ylmethyl)-benzene-1,4-diol::2-(1,2,4a,5-Tetramethyl-1,2,3,4,4a,7,8,8a-octahydro-naphthalen-1-ylmethyl)-benzene-1,4-diol(Avarol)(Avarol)::Avarol::Avrol::CHEMBL459814

> <Target Name>
Sterol O-acyltransferase 2

> <Target Source Organism According to Curator or DataSource>


> <Ki (nM)>


> <IC50 (nM)>
 14800

> <Kd (nM)>


> <EC50 (nM)>


> <kon (M-1-s-1)>


> <koff (s-1)>


> <pH>


> <Temp (C)>


> <Curation/DataSource>
ChEMBL

> <Article DOI>
10.1016/j.bmcl.2019.06.026

> <BindingDB Entry DOI>
10.7270/Q2NK3JC2

> <PMID>
31253530

> <PubChem AID>


> <Patent Number>


> <Authors>
Ohshiro, T; Kobayashi, K; Suzuki, A; Yamazaki, H; Uchida, R; Namikoshi, M; Tomoda, H

> <Institution>
Kitasato University

> <Link to Ligand in BindingDB>
http://www.bindingdb.org/bind/chemsearch/marvin/MolStructure.jsp?monomerid=50242257

> <Link to Target in BindingDB>
http://www.bindingdb.org/jsp/dbsearch/PrimarySearch_ki.jsp?energyterm=kJ/mole&tag=pol&polymerid=50007205&target=Sterol+O-acyltransferase+2&column=ki&startPg=0&Increment=50&submit=Search

> <Link to Ligand-Target Pair in BindingDB>
http://www.bindingdb.org/jsp/dbsearch/PrimarySearch_ki.jsp?energyterm=kJ/mole&tag=r21&monomerid=50242257&enzyme=Sterol+O-acyltransferase+2&column=ki&startPg=0&Increment=50&submit=Search

> <Ligand HET ID in PDB>


> <PDB ID(s) for Ligand-Target Complex>


> <PubChem CID>
72185

> <PubChem SID>
104099003

> <ChEBI ID of Ligand>


> <ChEMBL ID of Ligand>
CHEMBL459814

> <DrugBank ID of Ligand>


> <IUPHAR_GRAC ID of Ligand>


> <KEGG ID of Ligand>


> <ZINC ID of Ligand>
ZINC05752044

> <Number of Protein Chains in Target (>1 implies a multichain complex)>
1

> <BindingDB Target Chain Sequence>
MEPGGARLRLQRTEGPGGEREHQPCRDGNTETHRAPDLVKWTRHMEAVKAQLLEQAQGQLRELLDRAMWEAIQSYPSQDKPPPLPPPDSLSRTQEPSLGKQKVFIIRKSLLDELMEVQHFRTIYHMFIAGLCVFIISTLAIDFIDEGRLLLEFDLLIFSFGQLPLALVTWVPMFLSTLLAPYQALRLWARPGARGTWTLGAGLGCALLAAHALVLCALPVHVAVEHQLPPASRCVLVFEQVRFLMKSYSFLREAVPGTLRARRGEGIQAPSFSSYLYFLFCPTLIYRETYPRTPYIRWNYVAKNFAQALGCVLYACFILGRLCVPVFANMSREPFSTRALVLSILHATLPGIFMLLLIFFAFLHCWLNAFAEMLRFGDRMFYRDWWNSTSFSNYYRTWNVVVHDWLYSYVYQDGLWLLGAQARGVAMLGVFLVSAVAHEYIFCFVLGFFYPVMLILFLVIGGMLNFMMHDQHTGPAWNVLMWTMLFLGQGIQVSLYCQEWYARRHCPLPQTTFWGLVTPRSWSCHT

> <PDB ID(s) of Target Chain>


> <UniProt (SwissProt) Recommended Name of Target Chain>
Sterol O-acyltransferase 2

> <UniProt (SwissProt) Entry Name of Target Chain>
ACAT-2

> <UniProt (SwissProt) Primary ID of Target Chain>
O77759

> <UniProt (SwissProt) Secondary ID(s) of Target Chain>


> <UniProt (SwissProt) Alternative ID(s) of Target Chain>


> <UniProt (TrEMBL) Submitted Name of Target Chain>


> <UniProt (TrEMBL) Entry Name of Target Chain>


> <UniProt (TrEMBL) Primary ID of Target Chain>


> <UniProt (TrEMBL) Secondary ID(s) of Target Chain>


> <UniProt (TrEMBL) Alternative ID(s) of Target Chain>


$$$$

  Mrv0541 11241417312D          

 47 52  0  0  0  0            999 V2000
    0.9208   -7.1252    0.0000 C   0  0  0  0  0  0  0  0  0  0  0  0
    0.5125   -6.4126    0.0000 C   0  0  1  0  0  0  0  0  0  0  0  0
    0.0996   -7.1226    0.0000 C   0  0  0  0  0  0  0  0  0  0  0  0
   -0.1959   -5.1792    0.0000 C   0  0  0  0  0  0  0  0  0  0  0  0
   -0.1959   -6.0043    0.0000 C   0  0  2  0  0  0  0  0  0  0  0  0
    0.5162   -4.7626    0.0000 C   0  0  0  0  0  0  0  0  0  0  0  0
    1.2283   -5.1792    0.0000 C   0  0  1  0  0  0  0  0  0  0  0  0
    1.2293   -6.0043    0.0000 C   0  0  1  0  0  0  0  0  0  0  0  0
    1.9403   -6.4137    0.0000 C   0  0  0  0  0  0  0  0  0  0  0  0
    2.6549   -6.0025    0.0000 C   0  0  1  0  0  0  0  0  0  0  0  0
    1.9383   -4.7636    0.0000 C   0  0  2  0  0  0  0  0  0  0  0  0
    2.6558   -5.1781    0.0000 C   0  0  2  0  0  0  0  0  0  0  0  0
    3.3696   -4.7662    0.0000 O   0  0  0  0  0  0  0  0  0  0  0  0
    1.9345   -3.9372    0.0000 C   0  0  2  0  0  0  0  0  0  0  0  0
    2.6546   -3.5236    0.0000 C   0  0  0  0  0  0  0  0  0  0  0  0
    3.3771   -3.9373    0.0000 C   0  0  0  0  0  0  0  0  0  0  0  0
    4.0927   -3.5206    0.0000 C   0  0  0  0  0  0  0  0  0  0  0  0
    4.0919   -2.6886    0.0000 C   0  0  0  0  0  0  0  0  0  0  0  0
    3.3694   -2.2750    0.0000 O   0  0  0  0  0  0  0  0  0  0  0  0
    2.6475   -2.6934    0.0000 C   0  0  0  0  0  0  0  0  0  0  0  0
    4.8046   -2.2770    0.0000 C   0  0  0  0  0  0  0  0  0  0  0  0
    5.5204   -2.6896    0.0000 C   0  0  0  0  0  0  0  0  0  0  0  0
    6.2334   -2.2762    0.0000 N   0  0  0  0  0  0  0  0  0  0  0  0
    6.2319   -1.4503    0.0000 C   0  0  0  0  0  0  0  0  0  0  0  0
    5.5115   -1.0438    0.0000 C   0  0  0  0  0  0  0  0  0  0  0  0
    4.8014   -1.4554    0.0000 C   0  0  0  0  0  0  0  0  0  0  0  0
    3.3689   -6.4159    0.0000 O   0  0  0  0  0  0  0  0  0  0  0  0
    4.0839   -6.0043    0.0000 C   0  0  0  0  0  0  0  0  0  0  0  0
    4.7978   -6.4177    0.0000 C   0  0  0  0  0  0  0  0  0  0  0  0
    4.0850   -5.1792    0.0000 O   0  0  0  0  0  0  0  0  0  0  0  0
    1.9309   -2.2845    0.0000 O   0  0  0  0  0  0  0  0  0  0  0  0
    1.2196   -3.5255    0.0000 O   0  0  0  0  0  0  0  0  0  0  0  0
    1.2209   -4.3543    0.0000 C   0  0  0  0  0  0  0  0  0  0  0  0
    2.6500   -4.3501    0.0000 C   0  0  0  0  0  0  0  0  0  0  0  0
   -0.9153   -6.4179    0.0000 O   0  0  0  0  0  0  0  0  0  0  0  0
   -1.6252   -6.0064    0.0000 C   0  0  0  0  0  0  0  0  0  0  0  0
   -2.3387   -6.4199    0.0000 C   0  0  0  0  0  0  0  0  0  0  0  0
   -1.6324   -5.1814    0.0000 O   0  0  0  0  0  0  0  0  0  0  0  0
    4.7921   -7.2429    0.0000 C   0  0  0  0  0  0  0  0  0  0  0  0
    5.5052   -7.6563    0.0000 C   0  0  0  0  0  0  0  0  0  0  0  0
    6.2212   -7.2446    0.0000 C   0  0  0  0  0  0  0  0  0  0  0  0
    6.2196   -6.4153    0.0000 C   0  0  0  0  0  0  0  0  0  0  0  0
    5.5059   -6.0057    0.0000 C   0  0  0  0  0  0  0  0  0  0  0  0
    6.9351   -7.6532    0.0000 C   0  0  0  0  0  0  0  0  0  0  0  0
    7.6496   -8.0657    0.0000 N   0  0  0  0  0  0  0  0  0  0  0  0
   -0.7330   -7.1200    0.0000 O   0  0  0  0  0  0  0  0  0  0  0  0
    0.5098   -7.8384    0.0000 O   0  0  0  0  0  0  0  0  0  0  0  0
  2  1  1  1  0  0  0
  2  3  1  6  0  0  0
  5  4  1  0  0  0  0
  4  6  1  0  0  0  0
  2  5  1  0  0  0  0
  8  2  1  0  0  0  0
  7  6  1  0  0  0  0
  7  8  1  0  0  0  0
 11  7  1  1  0  0  0
  8  9  1  1  0  0  0
 10  9  1  0  0  0  0
 12 10  1  0  0  0  0
 11 12  1  0  0  0  0
 11 14  1  0  0  0  0
 12 13  1  0  0  0  0
 13 16  1  0  0  0  0
 14 15  1  0  0  0  0
 15 16  2  0  0  0  0
 15 20  1  0  0  0  0
 16 17  1  0  0  0  0
 17 18  2  0  0  0  0
 18 19  1  0  0  0  0
 19 20  1  0  0  0  0
 21 22  2  0  0  0  0
 22 23  1  0  0  0  0
 23 24  2  0  0  0  0
 24 25  1  0  0  0  0
 25 26  2  0  0  0  0
 26 21  1  0  0  0  0
 18 21  1  0  0  0  0
 10 27  1  1  0  0  0
 27 28  1  0  0  0  0
 28 29  1  0  0  0  0
 28 30  2  0  0  0  0
 20 31  2  0  0  0  0
 14 32  1  1  0  0  0
  7 33  1  1  0  0  0
 12 34  1  1  0  0  0
  5 35  1  1  0  0  0
 35 36  1  0  0  0  0
 36 37  1  0  0  0  0
 36 38  2  0  0  0  0
 29 39  2  0  0  0  0
 39 40  1  0  0  0  0
 40 41  2  0  0  0  0
 41 42  1  0  0  0  0
 42 43  2  0  0  0  0
 43 29  1  0  0  0  0
 44 45  3  0  0  0  0
 41 44  1  0  0  0  0
  3 46  2  0  0  0  0
  3 47  1  0  0  0  0
M  END
> <From>
www.bindingDB.org

> <BindingDB Reactant_set_id>
51061818

> <Ligand InChI>
InChI=1S/C35H34N2O10/c1-18(38)44-25-11-12-33(2)24(34(25,3)32(42)43)15-26(46-30(40)20-9-7-19(16-36)8-10-20)35(4)29(33)28(39)27-23(47-35)14-22(45-31(27)41)21-6-5-13-37-17-21/h5-10,13-14,17,24-26,28-29,39H,11-12,15H2,1-4H3,(H,42,43)/t24-,25+,26+,28+,29-,33+,34+,35-/m1/s1

> <Ligand InChI Key>
JDRFTRQWGQIASU-VRKOFYPXSA-N

> <BindingDB MonomerID>
50433220

> <BindingDB Ligand Name>
CHEMBL2375699

> <Target Name>
Sterol O-acyltransferase 2

> <Target Source Organism According to Curator or DataSource>


> <Ki (nM)>


> <IC50 (nM)>
>15200

> <Kd (nM)>


> <EC50 (nM)>


> <kon (M-1-s-1)>


> <koff (s-1)>


> <pH>


> <Temp (C)>


> <Curation/DataSource>
ChEMBL

> <Article DOI>
10.1016/j.bmcl.2013.02.088

> <BindingDB Entry DOI>
10.7270/Q20866P3

> <PMID>
23535327

> <PubChem AID>


> <Patent Number>


> <Authors>
Ohtawa, M; Yamazaki, H; Matsuda, D; Ohshiro, T; Rudel, LL; Omura, S; Tomoda, H; Nagamitsu, T

> <Institution>
Kitasato University

> <Link to Ligand in BindingDB>
http://www.bindingdb.org/bind/chemsearch/marvin/MolStructure.jsp?monomerid=50433220

> <Link to Target in BindingDB>
http://www.bindingdb.org/jsp/dbsearch/PrimarySearch_ki.jsp?energyterm=kJ/mole&tag=pol&polymerid=7773&target=Sterol+O-acyltransferase+2&column=ki&startPg=0&Increment=50&submit=Search

> <Link to Ligand-Target Pair in BindingDB>
http://www.bindingdb.org/jsp/dbsearch/PrimarySearch_ki.jsp?energyterm=kJ/mole&tag=r21&monomerid=50433220&enzyme=Sterol+O-acyltransferase+2&column=ki&startPg=0&Increment=50&submit=Search

> <Ligand HET ID in PDB>


> <PDB ID(s) for Ligand-Target Complex>


> <PubChem CID>
71602861

> <PubChem SID>
175445537

> <ChEBI ID of Ligand>


> <ChEMBL ID of Ligand>
CHEMBL2375699

> <DrugBank ID of Ligand>


> <IUPHAR_GRAC ID of Ligand>


> <KEGG ID of Ligand>


> <ZINC ID of Ligand>
ZINC72317452

> <Number of Protein Chains in Target (>1 implies a multichain complex)>
1

> <BindingDB Target Chain Sequence>
MEPGGARLRLQRTEGLGGERERQPCGDGNTETHRAPDLVQWTRHMEAVKAQLLEQAQGQLRELLDRAMREAIQSYPSQDKPLPPPPPGSLSRTQEPSLGKQKVFIIRKSLLDELMEVQHFRTIYHMFIAGLCVFIISTLAIDFIDEGRLLLEFDLLIFSFGQLPLALVTWVPMFLSTLLAPYQALRLWARGTWTQATGLGCALLAAHAVVLCALPVHVAVEHQLPPASRCVLVFEQVRFLMKSYSFLREAVPGTLRARRGEGIQAPSFSSYLYFLFCPTLIYRETYPRTPYVRWNYVAKNFAQALGCVLYACFILGRLCVPVFANMSREPFSTRALVLSILHATLPGIFMLLLIFFAFLHCWLNAFAEMLRFGDRMFYRDWWNSTSFSNYYRTWNVVVHDWLYSYVYQDGLRLLGARARGVAMLGVFLVSAVAHEYIFCFVLGFFYPVMLILFLVIGGMLNFMMHDQRTGPAWNVLMWTMLFLGQGIQVSLYCQEWYARRHCPLPQATFWGLVTPRSWSCHT

> <PDB ID(s) of Target Chain>


> <UniProt (SwissProt) Recommended Name of Target Chain>
Sterol O-acyltransferase 2

> <UniProt (SwissProt) Entry Name of Target Chain>
ACAT-2

> <UniProt (SwissProt) Primary ID of Target Chain>
O75908

> <UniProt (SwissProt) Secondary ID(s) of Target Chain>
F5H7W4 I6L9H9 Q4VB99 Q4VBA1 Q96TD4 Q9UNR2

> <UniProt (SwissProt) Alternative ID(s) of Target Chain>


> <UniProt (TrEMBL) Submitted Name of Target Chain>


> <UniProt (TrEMBL) Entry Name of Target Chain>


> <UniProt (TrEMBL) Primary ID of Target Chain>


> <UniProt (TrEMBL) Secondary ID(s) of Target Chain>


> <UniProt (TrEMBL) Alternative ID(s) of Target Chain>


$$$$

  SciTegic12221713412D

 27 30  0  0  0  0            999 V2000
   14.4866  -16.8845    0.0000 C   0  0  1  0  0  0
   15.2749  -16.6699    0.0000 C   0  0
   15.4820  -15.8842    0.0000 C   0  0
   14.9040  -15.3077    0.0000 C   0  0
   14.1157  -15.5223    0.0000 C   0  0  1  0  0  0
   13.9054  -16.3135    0.0000 O   0  0
   12.2936  -17.1445    0.0000 C   0  0
   12.2925  -17.9640    0.0000 C   0  0
   13.0005  -18.3730    0.0000 C   0  0
   12.9987  -16.7356    0.0000 C   0  0
   13.7073  -17.1409    0.0000 C   0  0
   13.7076  -17.9640    0.0000 C   0  0
   14.4906  -18.2182    0.0000 N   0  0
   14.9743  -17.5521    0.0000 C   0  0
   15.7915  -17.5518    0.0000 O   0  0
   13.5361  -14.9462    0.0000 C   0  0
   12.7474  -15.1601    0.0000 C   0  0
   12.1679  -14.5840    0.0000 C   0  0
   16.2708  -15.6707    0.0000 N   0  0
   16.8502  -16.2470    0.0000 O   0  0
   17.6389  -16.0334    0.0000 C   0  0
   18.2183  -16.6097    0.0000 C   0  0
   18.0057  -17.3981    0.0000 C   0  0
   18.5843  -17.9741    0.0000 C   0  0
   19.3740  -17.7607    0.0000 C   0  0
   19.5820  -16.9661    0.0000 C   0  0
   19.0019  -16.3935    0.0000 C   0  0
  1  2  1  0
  1  6  1  0
  2  3  1  0
  3  4  1  0
  4  5  1  0
  5  6  1  0
  7  8  2  0
  8  9  1  0
  9 12  2  0
 11 10  2  0
 10  7  1  0
 11 12  1  0
 12 13  1  0
 13 14  1  0
  1 14  1  1
  1 11  1  0
 14 15  2  0
  5 16  1  1
 16 17  1  0
 17 18  1  0
  3 19  2  0
 19 20  1  0
 20 21  1  0
 21 22  1  0
 22 23  2  0
 23 24  1  0
 24 25  2  0
 25 26  1  0
 26 27  2  0
 27 22  1  0
M  END
> <From>
www.bindingDB.org

> <BindingDB Reactant_set_id>
50533671

> <Ligand InChI>
InChI=1S/C22H24N2O3/c1-2-8-18-13-17(24-26-15-16-9-4-3-5-10-16)14-22(27-18)19-11-6-7-12-20(19)23-21(22)25/h3-7,9-12,18H,2,8,13-15H2,1H3,(H,23,25)/b24-17-/t18-,22+/m0/s1

> <Ligand InChI Key>
PVYMEAANGXOWGU-QDZUZFBZSA-N

> <BindingDB MonomerID>
50204551

> <BindingDB Ligand Name>
CHEMBL3958875

> <Target Name>
Sterol O-acyltransferase 2

> <Target Source Organism According to Curator or DataSource>


> <Ki (nM)>


> <IC50 (nM)>
 16000

> <Kd (nM)>


> <EC50 (nM)>


> <kon (M-1-s-1)>


> <koff (s-1)>


> <pH>


> <Temp (C)>


> <Curation/DataSource>
ChEMBL

> <Article DOI>
10.1016/j.bmcl.2016.11.008

> <BindingDB Entry DOI>
10.7270/Q2D220KD

> <PMID>
27876317

> <PubChem AID>


> <Patent Number>


> <Authors>
Kobayashi, K; Ohshiro, T; Tomoda, H; Yin, F; Cui, HL; Chouthaiwale, PV; Tanaka, F

> <Institution>
Kitasato University

> <Link to Ligand in BindingDB>
http://www.bindingdb.org/bind/chemsearch/marvin/MolStructure.jsp?monomerid=50204551

> <Link to Target in BindingDB>
http://www.bindingdb.org/jsp/dbsearch/PrimarySearch_ki.jsp?energyterm=kJ/mole&tag=pol&polymerid=50007205&target=Sterol+O-acyltransferase+2&column=ki&startPg=0&Increment=50&submit=Search

> <Link to Ligand-Target Pair in BindingDB>
http://www.bindingdb.org/jsp/dbsearch/PrimarySearch_ki.jsp?energyterm=kJ/mole&tag=r21&monomerid=50204551&enzyme=Sterol+O-acyltransferase+2&column=ki&startPg=0&Increment=50&submit=Search

> <Ligand HET ID in PDB>


> <PDB ID(s) for Ligand-Target Complex>


> <PubChem CID>
134156049

> <PubChem SID>
375980540

> <ChEBI ID of Ligand>


> <ChEMBL ID of Ligand>
CHEMBL3958875

> <DrugBank ID of Ligand>


> <IUPHAR_GRAC ID of Ligand>


> <KEGG ID of Ligand>


> <ZINC ID of Ligand>


> <Number of Protein Chains in Target (>1 implies a multichain complex)>
1

> <BindingDB Target Chain Sequence>
MEPGGARLRLQRTEGPGGEREHQPCRDGNTETHRAPDLVKWTRHMEAVKAQLLEQAQGQLRELLDRAMWEAIQSYPSQDKPPPLPPPDSLSRTQEPSLGKQKVFIIRKSLLDELMEVQHFRTIYHMFIAGLCVFIISTLAIDFIDEGRLLLEFDLLIFSFGQLPLALVTWVPMFLSTLLAPYQALRLWARPGARGTWTLGAGLGCALLAAHALVLCALPVHVAVEHQLPPASRCVLVFEQVRFLMKSYSFLREAVPGTLRARRGEGIQAPSFSSYLYFLFCPTLIYRETYPRTPYIRWNYVAKNFAQALGCVLYACFILGRLCVPVFANMSREPFSTRALVLSILHATLPGIFMLLLIFFAFLHCWLNAFAEMLRFGDRMFYRDWWNSTSFSNYYRTWNVVVHDWLYSYVYQDGLWLLGAQARGVAMLGVFLVSAVAHEYIFCFVLGFFYPVMLILFLVIGGMLNFMMHDQHTGPAWNVLMWTMLFLGQGIQVSLYCQEWYARRHCPLPQTTFWGLVTPRSWSCHT

> <PDB ID(s) of Target Chain>


> <UniProt (SwissProt) Recommended Name of Target Chain>
Sterol O-acyltransferase 2

> <UniProt (SwissProt) Entry Name of Target Chain>
ACAT-2

> <UniProt (SwissProt) Primary ID of Target Chain>
O77759

> <UniProt (SwissProt) Secondary ID(s) of Target Chain>


> <UniProt (SwissProt) Alternative ID(s) of Target Chain>


> <UniProt (TrEMBL) Submitted Name of Target Chain>


> <UniProt (TrEMBL) Entry Name of Target Chain>


> <UniProt (TrEMBL) Primary ID of Target Chain>


> <UniProt (TrEMBL) Secondary ID(s) of Target Chain>


> <UniProt (TrEMBL) Alternative ID(s) of Target Chain>


$$$$

  SciTegic12231719512D

 24 26  0  0  0  0            999 V2000
    5.9208  -19.1540    0.0000 C   0  0
    5.9208  -19.9790    0.0000 C   0  0
    6.6328  -20.3873    0.0000 C   0  0
    6.6328  -18.7373    0.0000 C   0  0
    7.3448  -19.1540    0.0000 C   0  0  2  0  0  0
    7.3459  -19.9790    0.0000 C   0  0  2  0  0  0
    8.0569  -20.3883    0.0000 C   0  0
    8.7714  -19.9772    0.0000 C   0  0
    8.0548  -18.7383    0.0000 C   0  0  1  0  0  0
    8.7723  -19.1528    0.0000 C   0  0  1  0  0  0
    8.0510  -17.9119    0.0000 C   0  0
    8.7710  -17.4983    0.0000 C   0  0
    9.4846  -17.9150    0.0000 C   0  0
   10.1999  -17.5054    0.0000 C   0  0
   10.2031  -16.6794    0.0000 C   0  0
    9.4848  -16.2647    0.0000 C   0  0
    8.7723  -16.6767    0.0000 C   0  0
    8.7666  -18.3206    0.0000 C   0  0
    7.3416  -20.7998    0.0000 C   0  0
    7.3374  -18.3290    0.0000 H   0  0
    6.6325  -21.2123    0.0000 C   0  0
   10.9129  -17.9205    0.0000 O   0  0
    9.4870  -18.7408    0.0000 C   0  0
    8.0581  -16.2639    0.0000 O   0  0
  1  2  1  0
  1  4  1  0
  2  3  1  0
  3  6  1  0
  5  4  1  0
  5  6  1  0
  5  9  1  0
  6  7  1  0
  7  8  1  0
  8 10  1  0
  9 10  1  0
  9 11  1  0
 12 11  1  0
 12 13  2  0
 13 14  1  0
 14 15  2  0
 15 16  1  0
 16 17  2  0
 17 12  1  0
  9 18  1  1
  6 19  1  1
  5 20  1  6
  3 21  2  0
 14 22  1  0
 10 23  1  1
 17 24  1  0
M  END
> <From>
www.bindingDB.org

> <BindingDB Reactant_set_id>
51253364

> <Ligand InChI>
InChI=1S/C21H30O2/c1-14-6-5-7-19-20(14,3)11-10-15(2)21(19,4)13-16-12-17(22)8-9-18(16)23/h8-9,12,15,19,22-23H,1,5-7,10-11,13H2,2-4H3/t15-,19+,20+,21+/m0/s1

> <Ligand InChI Key>
FBMAHDGTCDISLJ-LWILDLIXSA-N

> <BindingDB MonomerID>
50196069

> <BindingDB Ligand Name>
CHEMBL3965313

> <Target Name>
Sterol O-acyltransferase 2

> <Target Source Organism According to Curator or DataSource>


> <Ki (nM)>


> <IC50 (nM)>
 19100

> <Kd (nM)>


> <EC50 (nM)>


> <kon (M-1-s-1)>


> <koff (s-1)>


> <pH>


> <Temp (C)>


> <Curation/DataSource>
ChEMBL

> <Article DOI>
10.1016/j.bmcl.2019.06.026

> <BindingDB Entry DOI>
10.7270/Q2NK3JC2

> <PMID>
31253530

> <PubChem AID>


> <Patent Number>


> <Authors>
Ohshiro, T; Kobayashi, K; Suzuki, A; Yamazaki, H; Uchida, R; Namikoshi, M; Tomoda, H

> <Institution>
Kitasato University

> <Link to Ligand in BindingDB>
http://www.bindingdb.org/bind/chemsearch/marvin/MolStructure.jsp?monomerid=50196069

> <Link to Target in BindingDB>
http://www.bindingdb.org/jsp/dbsearch/PrimarySearch_ki.jsp?energyterm=kJ/mole&tag=pol&polymerid=50007205&target=Sterol+O-acyltransferase+2&column=ki&startPg=0&Increment=50&submit=Search

> <Link to Ligand-Target Pair in BindingDB>
http://www.bindingdb.org/jsp/dbsearch/PrimarySearch_ki.jsp?energyterm=kJ/mole&tag=r21&monomerid=50196069&enzyme=Sterol+O-acyltransferase+2&column=ki&startPg=0&Increment=50&submit=Search

> <Ligand HET ID in PDB>


> <PDB ID(s) for Ligand-Target Complex>


> <PubChem CID>
11392873

> <PubChem SID>
375977297

> <ChEBI ID of Ligand>


> <ChEMBL ID of Ligand>
CHEMBL3965313

> <DrugBank ID of Ligand>


> <IUPHAR_GRAC ID of Ligand>


> <KEGG ID of Ligand>


> <ZINC ID of Ligand>


> <Number of Protein Chains in Target (>1 implies a multichain complex)>
1

> <BindingDB Target Chain Sequence>
MEPGGARLRLQRTEGPGGEREHQPCRDGNTETHRAPDLVKWTRHMEAVKAQLLEQAQGQLRELLDRAMWEAIQSYPSQDKPPPLPPPDSLSRTQEPSLGKQKVFIIRKSLLDELMEVQHFRTIYHMFIAGLCVFIISTLAIDFIDEGRLLLEFDLLIFSFGQLPLALVTWVPMFLSTLLAPYQALRLWARPGARGTWTLGAGLGCALLAAHALVLCALPVHVAVEHQLPPASRCVLVFEQVRFLMKSYSFLREAVPGTLRARRGEGIQAPSFSSYLYFLFCPTLIYRETYPRTPYIRWNYVAKNFAQALGCVLYACFILGRLCVPVFANMSREPFSTRALVLSILHATLPGIFMLLLIFFAFLHCWLNAFAEMLRFGDRMFYRDWWNSTSFSNYYRTWNVVVHDWLYSYVYQDGLWLLGAQARGVAMLGVFLVSAVAHEYIFCFVLGFFYPVMLILFLVIGGMLNFMMHDQHTGPAWNVLMWTMLFLGQGIQVSLYCQEWYARRHCPLPQTTFWGLVTPRSWSCHT

> <PDB ID(s) of Target Chain>


> <UniProt (SwissProt) Recommended Name of Target Chain>
Sterol O-acyltransferase 2

> <UniProt (SwissProt) Entry Name of Target Chain>
ACAT-2

> <UniProt (SwissProt) Primary ID of Target Chain>
O77759

> <UniProt (SwissProt) Secondary ID(s) of Target Chain>


> <UniProt (SwissProt) Alternative ID(s) of Target Chain>


> <UniProt (TrEMBL) Submitted Name of Target Chain>


> <UniProt (TrEMBL) Entry Name of Target Chain>


> <UniProt (TrEMBL) Primary ID of Target Chain>


> <UniProt (TrEMBL) Secondary ID(s) of Target Chain>


> <UniProt (TrEMBL) Alternative ID(s) of Target Chain>


$$$$

  Mrv0541 11221400292D          

 30 32  0  0  0  0            999 V2000
    4.0069    0.2250    0.0000 C   0  0  0  0  0  0  0  0  0  0  0  0
    4.7188    0.6378    0.0000 C   0  0  0  0  0  0  0  0  0  0  0  0
    5.4341    0.2287    0.0000 C   0  0  0  0  0  0  0  0  0  0  0  0
    5.4329   -0.6044    0.0000 C   0  0  0  0  0  0  0  0  0  0  0  0
    6.1498   -1.0197    0.0000 O   0  0  0  0  0  0  0  0  0  0  0  0
    6.1522    0.6465    0.0000 C   0  0  0  0  0  0  0  0  0  0  0  0
    6.8737    0.2266    0.0000 C   0  0  0  0  0  0  0  0  0  0  0  0
    6.8724   -0.6023    0.0000 C   0  0  0  0  0  0  0  0  0  0  0  0
    7.5885   -1.0161    0.0000 C   0  0  0  0  0  0  0  0  0  0  0  0
    8.3064   -0.6021    0.0000 C   0  0  0  0  0  0  0  0  0  0  0  0
    8.3036    0.2300    0.0000 C   0  0  0  0  0  0  0  0  0  0  0  0
    7.5870    0.6400    0.0000 C   0  0  0  0  0  0  0  0  0  0  0  0
    4.7206   -1.0152    0.0000 C   0  0  0  0  0  0  0  0  0  0  0  0
    4.0026   -0.6038    0.0000 C   0  0  0  0  0  0  0  0  0  0  0  0
    3.2913   -1.0176    0.0000 O   0  0  0  0  0  0  0  0  0  0  0  0
    7.5846    1.4650    0.0000 O   0  0  0  0  0  0  0  0  0  0  0  0
    9.0214   -1.0136    0.0000 O   0  0  0  0  0  0  0  0  0  0  0  0
    7.5882   -1.8411    0.0000 C   0  0  0  0  0  0  0  0  0  0  0  0
    6.8735   -2.2533    0.0000 C   0  0  0  0  0  0  0  0  0  0  0  0
    6.8732   -3.0783    0.0000 C   0  0  0  0  0  0  0  0  0  0  0  0
    7.8000   -2.6333    0.0000 C   0  0  0  0  0  0  0  0  0  0  0  0
    8.3833   -1.6208    0.0000 C   0  0  0  0  0  0  0  0  0  0  0  0
    6.1523    1.4715    0.0000 O   0  0  0  0  0  0  0  0  0  0  0  0
    3.2931    0.6387    0.0000 O   0  0  0  0  0  0  0  0  0  0  0  0
    3.2945    1.4637    0.0000 C   0  0  0  0  0  0  0  0  0  0  0  0
    4.7163    1.4628    0.0000 C   0  0  0  0  0  0  0  0  0  0  0  0
    5.4295    1.8774    0.0000 C   0  0  0  0  0  0  0  0  0  0  0  0
    5.4271    2.7024    0.0000 C   0  0  0  0  0  0  0  0  0  0  0  0
    6.1403    3.1171    0.0000 C   0  0  0  0  0  0  0  0  0  0  0  0
    4.7114    3.1128    0.0000 C   0  0  0  0  0  0  0  0  0  0  0  0
  4  5  1  0  0  0  0
  5  8  1  0  0  0  0
 14 15  1  0  0  0  0
  7  6  1  0  0  0  0
 12 16  1  0  0  0  0
  2  1  1  0  0  0  0
 10 17  1  0  0  0  0
  3  4  1  0  0  0  0
  9 18  1  0  0  0  0
  7  8  1  0  0  0  0
 18 19  1  0  0  0  0
  1 14  2  0  0  0  0
 19 20  2  0  0  0  0
  8  9  2  0  0  0  0
 18 21  1  0  0  0  0
 13  4  2  0  0  0  0
 18 22  1  0  0  0  0
  9 10  1  0  0  0  0
  6 23  2  0  0  0  0
  1 24  1  0  0  0  0
 10 11  2  0  0  0  0
 24 25  1  0  0  0  0
  3  2  2  0  0  0  0
  2 26  1  0  0  0  0
 11 12  1  0  0  0  0
 26 27  1  0  0  0  0
 12  7  2  0  0  0  0
 27 28  2  0  0  0  0
 13 14  1  0  0  0  0
 28 29  1  0  0  0  0
  3  6  1  0  0  0  0
 28 30  1  0  0  0  0
M  END
> <From>
www.bindingDB.org

> <BindingDB Reactant_set_id>
50357589

> <Ligand InChI>
InChI=1S/C24H26O6/c1-7-24(4,5)20-15(26)10-14(25)19-21(28)18-13(9-8-12(2)3)22(29-6)16(27)11-17(18)30-23(19)20/h7-8,10-11,25-27H,1,9H2,2-6H3

> <Ligand InChI Key>
ZTYHIXDBHBLOBX-UHFFFAOYSA-N

> <BindingDB MonomerID>
50175017

> <BindingDB Ligand Name>
3,6,8-trihydroxy-2-methoxy-1-(3-methylbut-2-enyl)-5-(2-methylbut-3-en-2-yl)-9H-xanthen-9-one::CHEMBL200429::cudraxanthone C

> <Target Name>
Sterol O-acyltransferase 2

> <Target Source Organism According to Curator or DataSource>


> <Ki (nM)>


> <IC50 (nM)>
 19200

> <Kd (nM)>


> <EC50 (nM)>


> <kon (M-1-s-1)>


> <koff (s-1)>


> <pH>


> <Temp (C)>


> <Curation/DataSource>
ChEMBL

> <Article DOI>
10.1016/j.bmcl.2006.08.032

> <BindingDB Entry DOI>
10.7270/Q2PV6K0R

> <PMID>
16919944

> <PubChem AID>


> <Patent Number>


> <Authors>
Park, KH; Park, YD; Han, JM; Im, KR; Lee, BW; Jeong, IY; Jeong, TS; Lee, WS

> <Institution>
National Research Laboratory of Lipid Metabolism and Atherosclerosis

> <Link to Ligand in BindingDB>
http://www.bindingdb.org/bind/chemsearch/marvin/MolStructure.jsp?monomerid=50175017

> <Link to Target in BindingDB>
http://www.bindingdb.org/jsp/dbsearch/PrimarySearch_ki.jsp?energyterm=kJ/mole&tag=pol&polymerid=7773&target=Sterol+O-acyltransferase+2&column=ki&startPg=0&Increment=50&submit=Search

> <Link to Ligand-Target Pair in BindingDB>
http://www.bindingdb.org/jsp/dbsearch/PrimarySearch_ki.jsp?energyterm=kJ/mole&tag=r21&monomerid=50175017&enzyme=Sterol+O-acyltransferase+2&column=ki&startPg=0&Increment=50&submit=Search

> <Ligand HET ID in PDB>


> <PDB ID(s) for Ligand-Target Complex>


> <PubChem CID>
44405862

> <PubChem SID>
104060758

> <ChEBI ID of Ligand>


> <ChEMBL ID of Ligand>
CHEMBL200429

> <DrugBank ID of Ligand>


> <IUPHAR_GRAC ID of Ligand>


> <KEGG ID of Ligand>


> <ZINC ID of Ligand>
ZINC13411978

> <Number of Protein Chains in Target (>1 implies a multichain complex)>
1

> <BindingDB Target Chain Sequence>
MEPGGARLRLQRTEGLGGERERQPCGDGNTETHRAPDLVQWTRHMEAVKAQLLEQAQGQLRELLDRAMREAIQSYPSQDKPLPPPPPGSLSRTQEPSLGKQKVFIIRKSLLDELMEVQHFRTIYHMFIAGLCVFIISTLAIDFIDEGRLLLEFDLLIFSFGQLPLALVTWVPMFLSTLLAPYQALRLWARGTWTQATGLGCALLAAHAVVLCALPVHVAVEHQLPPASRCVLVFEQVRFLMKSYSFLREAVPGTLRARRGEGIQAPSFSSYLYFLFCPTLIYRETYPRTPYVRWNYVAKNFAQALGCVLYACFILGRLCVPVFANMSREPFSTRALVLSILHATLPGIFMLLLIFFAFLHCWLNAFAEMLRFGDRMFYRDWWNSTSFSNYYRTWNVVVHDWLYSYVYQDGLRLLGARARGVAMLGVFLVSAVAHEYIFCFVLGFFYPVMLILFLVIGGMLNFMMHDQRTGPAWNVLMWTMLFLGQGIQVSLYCQEWYARRHCPLPQATFWGLVTPRSWSCHT

> <PDB ID(s) of Target Chain>


> <UniProt (SwissProt) Recommended Name of Target Chain>
Sterol O-acyltransferase 2

> <UniProt (SwissProt) Entry Name of Target Chain>
ACAT-2

> <UniProt (SwissProt) Primary ID of Target Chain>
O75908

> <UniProt (SwissProt) Secondary ID(s) of Target Chain>
F5H7W4 I6L9H9 Q4VB99 Q4VBA1 Q96TD4 Q9UNR2

> <UniProt (SwissProt) Alternative ID(s) of Target Chain>


> <UniProt (TrEMBL) Submitted Name of Target Chain>


> <UniProt (TrEMBL) Entry Name of Target Chain>


> <UniProt (TrEMBL) Primary ID of Target Chain>


> <UniProt (TrEMBL) Secondary ID(s) of Target Chain>


> <UniProt (TrEMBL) Alternative ID(s) of Target Chain>


$$$$

  Mrv0541 11231422322D          

 35 36  0  0  0  0            999 V2000
   -0.5223  -20.2843    0.0000 C   0  0  2  0  0  0  0  0  0  0  0  0
    0.4630  -20.3230    0.0000 C   0  0  0  0  0  0  0  0  0  0  0  0
   -0.7756  -21.0661    0.0000 O   0  0  0  0  0  0  0  0  0  0  0  0
    0.6649  -21.1255    0.0000 C   0  0  0  0  0  0  0  0  0  0  0  0
   -1.5509  -21.3267    0.0000 C   0  0  0  0  0  0  0  0  0  0  0  0
    1.4350  -21.3661    0.0000 N   0  0  0  0  0  0  0  0  0  0  0  0
   -1.5660  -22.1399    0.0000 C   0  0  2  0  0  0  0  0  0  0  0  0
    1.4600  -22.2658    0.0000 C   0  0  2  0  0  0  0  0  0  0  0  0
   -0.8015  -22.3941    0.0000 N   0  0  0  0  0  0  0  0  0  0  0  0
    0.5947  -22.4175    0.0000 C   0  0  0  0  0  0  0  0  0  0  0  0
   -0.7524  -23.1866    0.0000 C   0  0  0  0  0  0  0  0  0  0  0  0
    0.5960  -23.2085    0.0000 N   0  0  0  0  0  0  0  0  0  0  0  0
   -0.0532  -23.4646    0.0000 C   0  0  1  0  0  0  0  0  0  0  0  0
    2.2127  -22.7526    0.0000 C   0  0  0  0  0  0  0  0  0  0  0  0
    3.0136  -22.3426    0.0000 C   0  0  0  0  0  0  0  0  0  0  0  0
    3.7616  -22.8378    0.0000 C   0  0  0  0  0  0  0  0  0  0  0  0
    4.5646  -22.4262    0.0000 C   0  0  0  0  0  0  0  0  0  0  0  0
    4.6106  -21.5316    0.0000 C   0  0  0  0  0  0  0  0  0  0  0  0
    3.8523  -21.0420    0.0000 C   0  0  0  0  0  0  0  0  0  0  0  0
    3.0562  -21.4487    0.0000 C   0  0  0  0  0  0  0  0  0  0  0  0
    0.0736  -21.6931    0.0000 O   0  0  0  0  0  0  0  0  0  0  0  0
   -0.9292  -19.5686    0.0000 C   0  0  2  0  0  0  0  0  0  0  0  0
   -0.5050  -18.8610    0.0000 C   0  0  0  0  0  0  0  0  0  0  0  0
   -1.7476  -19.5592    0.0000 C   0  0  0  0  0  0  0  0  0  0  0  0
    0.3192  -18.8716    0.0000 C   0  0  0  0  0  0  0  0  0  0  0  0
    0.7328  -18.1641    0.0000 C   0  0  0  0  0  0  0  0  0  0  0  0
    1.5569  -18.1747    0.0000 C   0  0  0  0  0  0  0  0  0  0  0  0
   -2.2098  -20.8509    0.0000 O   0  0  0  0  0  0  0  0  0  0  0  0
   -1.4182  -23.6631    0.0000 O   0  0  0  0  0  0  0  0  0  0  0  0
   -0.0553  -24.2902    0.0000 C   0  0  0  0  0  0  0  0  0  0  0  0
   -0.2022  -22.1932    0.0000 O   0  0  0  0  0  0  0  0  0  0  0  0
   -2.2357  -22.6196    0.0000 C   0  0  0  0  0  0  0  0  0  0  0  0
   -2.9801  -22.2697    0.0000 C   0  0  0  0  0  0  0  0  0  0  0  0
   -3.0567  -21.4499    0.0000 C   0  0  0  0  0  0  0  0  0  0  0  0
   -3.6562  -22.7441    0.0000 C   0  0  0  0  0  0  0  0  0  0  0  0
  1  3  1  0  0  0  0
  2  4  1  0  0  0  0
  3  5  1  0  0  0  0
  4  6  1  0  0  0  0
  7  5  1  0  0  0  0
  8  6  1  0  0  0  0
  7  9  1  0  0  0  0
  8 10  1  0  0  0  0
  9 11  1  0  0  0  0
 10 12  1  0  0  0  0
 13 11  1  0  0  0  0
 13 12  1  0  0  0  0
  1  2  1  0  0  0  0
  8 14  1  1  0  0  0
 14 15  1  0  0  0  0
 15 16  2  0  0  0  0
 16 17  1  0  0  0  0
 17 18  2  0  0  0  0
 18 19  1  0  0  0  0
 19 20  2  0  0  0  0
 20 15  1  0  0  0  0
  4 21  2  0  0  0  0
  1 22  1  6  0  0  0
 22 23  1  0  0  0  0
 22 24  1  1  0  0  0
 23 25  1  0  0  0  0
 25 26  1  0  0  0  0
 26 27  1  0  0  0  0
  5 28  2  0  0  0  0
 11 29  2  0  0  0  0
 13 30  1  1  0  0  0
 10 31  2  0  0  0  0
  7 32  1  6  0  0  0
 32 33  1  0  0  0  0
 33 34  1  0  0  0  0
 33 35  1  0  0  0  0
M  END
> <From>
www.bindingDB.org

> <BindingDB Reactant_set_id>
330430

> <Ligand InChI>
InChI=1S/C27H41N3O5/c1-6-7-11-18(4)23-16-24(31)29-21(15-20-12-9-8-10-13-20)26(33)28-19(5)25(32)30-22(14-17(2)3)27(34)35-23/h8-10,12-13,17-19,21-23H,6-7,11,14-16H2,1-5H3,(H,28,33)(H,29,31)(H,30,32)/t18-,19-,21-,22+,23-/m0/s1

> <Ligand InChI Key>
ZKSLFHXTWGEITF-JIORRVSTSA-N

> <BindingDB MonomerID>
50360304

> <BindingDB Ligand Name>
CHEMBL516093::US9149492, Beauveriolide I

> <Target Name>
Sterol O-acyltransferase 2

> <Target Source Organism According to Curator or DataSource>


> <Ki (nM)>


> <IC50 (nM)>
 20000

> <Kd (nM)>


> <EC50 (nM)>


> <kon (M-1-s-1)>


> <koff (s-1)>


> <pH>


> <Temp (C)>


> <Curation/DataSource>
US Patent

> <Article DOI>


> <BindingDB Entry DOI>
10.7270/Q2N015BF

> <PMID>


> <PubChem AID>
aid1801692

> <Patent Number>
US9149492

> <Authors>
Chang, T; Chang, CC; Shibuya, Y; Bryleva, E; Murphy, S; Rogers, MA

> <Institution>
Dartmouth College

> <Link to Ligand in BindingDB>
http://www.bindingdb.org/bind/chemsearch/marvin/MolStructure.jsp?monomerid=50360304

> <Link to Target in BindingDB>
http://www.bindingdb.org/jsp/dbsearch/PrimarySearch_ki.jsp?energyterm=kJ/mole&tag=pol&polymerid=7773&target=Sterol+O-acyltransferase+2&column=ki&startPg=0&Increment=50&submit=Search

> <Link to Ligand-Target Pair in BindingDB>
http://www.bindingdb.org/jsp/dbsearch/PrimarySearch_ki.jsp?energyterm=kJ/mole&tag=r21&monomerid=50360304&enzyme=Sterol+O-acyltransferase+2&column=ki&startPg=0&Increment=50&submit=Search

> <Ligand HET ID in PDB>


> <PDB ID(s) for Ligand-Target Complex>


> <PubChem CID>
9913349

> <PubChem SID>
136964366

> <ChEBI ID of Ligand>


> <ChEMBL ID of Ligand>
CHEMBL516093

> <DrugBank ID of Ligand>


> <IUPHAR_GRAC ID of Ligand>


> <KEGG ID of Ligand>


> <ZINC ID of Ligand>
ZINC03916057

> <Number of Protein Chains in Target (>1 implies a multichain complex)>
1

> <BindingDB Target Chain Sequence>
MEPGGARLRLQRTEGLGGERERQPCGDGNTETHRAPDLVQWTRHMEAVKAQLLEQAQGQLRELLDRAMREAIQSYPSQDKPLPPPPPGSLSRTQEPSLGKQKVFIIRKSLLDELMEVQHFRTIYHMFIAGLCVFIISTLAIDFIDEGRLLLEFDLLIFSFGQLPLALVTWVPMFLSTLLAPYQALRLWARGTWTQATGLGCALLAAHAVVLCALPVHVAVEHQLPPASRCVLVFEQVRFLMKSYSFLREAVPGTLRARRGEGIQAPSFSSYLYFLFCPTLIYRETYPRTPYVRWNYVAKNFAQALGCVLYACFILGRLCVPVFANMSREPFSTRALVLSILHATLPGIFMLLLIFFAFLHCWLNAFAEMLRFGDRMFYRDWWNSTSFSNYYRTWNVVVHDWLYSYVYQDGLRLLGARARGVAMLGVFLVSAVAHEYIFCFVLGFFYPVMLILFLVIGGMLNFMMHDQRTGPAWNVLMWTMLFLGQGIQVSLYCQEWYARRHCPLPQATFWGLVTPRSWSCHT

> <PDB ID(s) of Target Chain>


> <UniProt (SwissProt) Recommended Name of Target Chain>
Sterol O-acyltransferase 2

> <UniProt (SwissProt) Entry Name of Target Chain>
ACAT-2

> <UniProt (SwissProt) Primary ID of Target Chain>
O75908

> <UniProt (SwissProt) Secondary ID(s) of Target Chain>
F5H7W4 I6L9H9 Q4VB99 Q4VBA1 Q96TD4 Q9UNR2

> <UniProt (SwissProt) Alternative ID(s) of Target Chain>


> <UniProt (TrEMBL) Submitted Name of Target Chain>


> <UniProt (TrEMBL) Entry Name of Target Chain>


> <UniProt (TrEMBL) Primary ID of Target Chain>


> <UniProt (TrEMBL) Secondary ID(s) of Target Chain>


> <UniProt (TrEMBL) Alternative ID(s) of Target Chain>


$$$$

  Mrv0541 11231422322D          

 35 36  0  0  0  0            999 V2000
   -2.6486  -12.2948    0.0000 C   0  0  2  0  0  0  0  0  0  0  0  0
   -1.6669  -12.3335    0.0000 C   0  0  0  0  0  0  0  0  0  0  0  0
   -2.8981  -13.0772    0.0000 O   0  0  0  0  0  0  0  0  0  0  0  0
   -1.4647  -13.1367    0.0000 C   0  0  0  0  0  0  0  0  0  0  0  0
   -3.6781  -13.3423    0.0000 C   0  0  0  0  0  0  0  0  0  0  0  0
   -0.6940  -13.3773    0.0000 N   0  0  0  0  0  0  0  0  0  0  0  0
   -3.6932  -14.1518    0.0000 C   0  0  2  0  0  0  0  0  0  0  0  0
   -0.6689  -14.2779    0.0000 C   0  0  2  0  0  0  0  0  0  0  0  0
   -2.9239  -14.4063    0.0000 N   0  0  0  0  0  0  0  0  0  0  0  0
   -1.5351  -14.4297    0.0000 C   0  0  0  0  0  0  0  0  0  0  0  0
   -2.8832  -15.1994    0.0000 C   0  0  0  0  0  0  0  0  0  0  0  0
   -1.5295  -15.2214    0.0000 N   0  0  0  0  0  0  0  0  0  0  0  0
   -2.1792  -15.4734    0.0000 C   0  0  1  0  0  0  0  0  0  0  0  0
    0.0843  -14.7608    0.0000 C   0  0  0  0  0  0  0  0  0  0  0  0
    0.8816  -14.3546    0.0000 C   0  0  0  0  0  0  0  0  0  0  0  0
    1.6303  -14.8462    0.0000 C   0  0  0  0  0  0  0  0  0  0  0  0
    2.4297  -14.4385    0.0000 C   0  0  0  0  0  0  0  0  0  0  0  0
    2.4800  -13.5473    0.0000 C   0  0  0  0  0  0  0  0  0  0  0  0
    1.7169  -13.0530    0.0000 C   0  0  0  0  0  0  0  0  0  0  0  0
    0.9244  -13.4600    0.0000 C   0  0  0  0  0  0  0  0  0  0  0  0
   -2.0565  -13.7047    0.0000 O   0  0  0  0  0  0  0  0  0  0  0  0
   -3.0559  -11.5827    0.0000 C   0  0  2  0  0  0  0  0  0  0  0  0
   -2.6355  -10.8746    0.0000 C   0  0  0  0  0  0  0  0  0  0  0  0
   -3.8707  -11.5733    0.0000 C   0  0  0  0  0  0  0  0  0  0  0  0
   -1.8106  -10.8851    0.0000 C   0  0  0  0  0  0  0  0  0  0  0  0
   -1.3926  -10.1813    0.0000 C   0  0  0  0  0  0  0  0  0  0  0  0
   -0.5719  -10.1876    0.0000 C   0  0  0  0  0  0  0  0  0  0  0  0
   -4.3375  -12.8576    0.0000 O   0  0  0  0  0  0  0  0  0  0  0  0
   -3.5495  -15.6721    0.0000 O   0  0  0  0  0  0  0  0  0  0  0  0
   -2.1813  -16.2997    0.0000 C   0  0  0  0  0  0  0  0  0  0  0  0
   -2.3283  -14.2009    0.0000 O   0  0  0  0  0  0  0  0  0  0  0  0
   -4.3593  -14.6278    0.0000 C   0  0  2  0  0  0  0  0  0  0  0  0
   -5.1085  -14.2817    0.0000 C   0  0  0  0  0  0  0  0  0  0  0  0
   -5.1810  -13.4614    0.0000 C   0  0  0  0  0  0  0  0  0  0  0  0
   -4.2857  -15.4450    0.0000 C   0  0  0  0  0  0  0  0  0  0  0  0
  1  3  1  0  0  0  0
  2  4  1  0  0  0  0
  3  5  1  0  0  0  0
  4  6  1  0  0  0  0
  7  5  1  0  0  0  0
  8  6  1  0  0  0  0
  7  9  1  0  0  0  0
  8 10  1  0  0  0  0
  9 11  1  0  0  0  0
 10 12  1  0  0  0  0
 13 11  1  0  0  0  0
 13 12  1  0  0  0  0
  1  2  1  0  0  0  0
  8 14  1  1  0  0  0
 14 15  1  0  0  0  0
 15 16  2  0  0  0  0
 16 17  1  0  0  0  0
 17 18  2  0  0  0  0
 18 19  1  0  0  0  0
 19 20  2  0  0  0  0
 20 15  1  0  0  0  0
  4 21  2  0  0  0  0
  1 22  1  6  0  0  0
 22 23  1  0  0  0  0
 22 24  1  1  0  0  0
 23 25  1  0  0  0  0
 25 26  1  0  0  0  0
 26 27  1  0  0  0  0
  5 28  2  0  0  0  0
 11 29  2  0  0  0  0
 13 30  1  1  0  0  0
 10 31  2  0  0  0  0
  7 32  1  6  0  0  0
 32 33  1  0  0  0  0
 33 34  1  0  0  0  0
 32 35  1  1  0  0  0
M  END
> <From>
www.bindingDB.org

> <BindingDB Reactant_set_id>
330431

> <Ligand InChI>
InChI=1S/C27H41N3O5/c1-6-8-12-18(4)22-16-23(31)29-21(15-20-13-10-9-11-14-20)26(33)28-19(5)25(32)30-24(17(3)7-2)27(34)35-22/h9-11,13-14,17-19,21-22,24H,6-8,12,15-16H2,1-5H3,(H,28,33)(H,29,31)(H,30,32)/t17-,18-,19-,21-,22-,24+/m0/s1

> <Ligand InChI Key>
VEELKRGSLCNVAR-QVZGIDAOSA-N

> <BindingDB MonomerID>
50360305

> <BindingDB Ligand Name>
CHEMBL409855::US9149492, Beauveriolide III

> <Target Name>
Sterol O-acyltransferase 2

> <Target Source Organism According to Curator or DataSource>


> <Ki (nM)>


> <IC50 (nM)>
>20000

> <Kd (nM)>


> <EC50 (nM)>


> <kon (M-1-s-1)>


> <koff (s-1)>


> <pH>


> <Temp (C)>


> <Curation/DataSource>
US Patent

> <Article DOI>


> <BindingDB Entry DOI>
10.7270/Q2N015BF

> <PMID>


> <PubChem AID>
aid1801692

> <Patent Number>
US9149492

> <Authors>
Chang, T; Chang, CC; Shibuya, Y; Bryleva, E; Murphy, S; Rogers, MA

> <Institution>
Dartmouth College

> <Link to Ligand in BindingDB>
http://www.bindingdb.org/bind/chemsearch/marvin/MolStructure.jsp?monomerid=50360305

> <Link to Target in BindingDB>
http://www.bindingdb.org/jsp/dbsearch/PrimarySearch_ki.jsp?energyterm=kJ/mole&tag=pol&polymerid=7773&target=Sterol+O-acyltransferase+2&column=ki&startPg=0&Increment=50&submit=Search

> <Link to Ligand-Target Pair in BindingDB>
http://www.bindingdb.org/jsp/dbsearch/PrimarySearch_ki.jsp?energyterm=kJ/mole&tag=r21&monomerid=50360305&enzyme=Sterol+O-acyltransferase+2&column=ki&startPg=0&Increment=50&submit=Search

> <Ligand HET ID in PDB>


> <PDB ID(s) for Ligand-Target Complex>


> <PubChem CID>
9848317

> <PubChem SID>
136964367

> <ChEBI ID of Ligand>


> <ChEMBL ID of Ligand>
CHEMBL409855

> <DrugBank ID of Ligand>


> <IUPHAR_GRAC ID of Ligand>


> <KEGG ID of Ligand>


> <ZINC ID of Ligand>
ZINC44146312

> <Number of Protein Chains in Target (>1 implies a multichain complex)>
1

> <BindingDB Target Chain Sequence>
MEPGGARLRLQRTEGLGGERERQPCGDGNTETHRAPDLVQWTRHMEAVKAQLLEQAQGQLRELLDRAMREAIQSYPSQDKPLPPPPPGSLSRTQEPSLGKQKVFIIRKSLLDELMEVQHFRTIYHMFIAGLCVFIISTLAIDFIDEGRLLLEFDLLIFSFGQLPLALVTWVPMFLSTLLAPYQALRLWARGTWTQATGLGCALLAAHAVVLCALPVHVAVEHQLPPASRCVLVFEQVRFLMKSYSFLREAVPGTLRARRGEGIQAPSFSSYLYFLFCPTLIYRETYPRTPYVRWNYVAKNFAQALGCVLYACFILGRLCVPVFANMSREPFSTRALVLSILHATLPGIFMLLLIFFAFLHCWLNAFAEMLRFGDRMFYRDWWNSTSFSNYYRTWNVVVHDWLYSYVYQDGLRLLGARARGVAMLGVFLVSAVAHEYIFCFVLGFFYPVMLILFLVIGGMLNFMMHDQRTGPAWNVLMWTMLFLGQGIQVSLYCQEWYARRHCPLPQATFWGLVTPRSWSCHT

> <PDB ID(s) of Target Chain>


> <UniProt (SwissProt) Recommended Name of Target Chain>
Sterol O-acyltransferase 2

> <UniProt (SwissProt) Entry Name of Target Chain>
ACAT-2

> <UniProt (SwissProt) Primary ID of Target Chain>
O75908

> <UniProt (SwissProt) Secondary ID(s) of Target Chain>
F5H7W4 I6L9H9 Q4VB99 Q4VBA1 Q96TD4 Q9UNR2

> <UniProt (SwissProt) Alternative ID(s) of Target Chain>


> <UniProt (TrEMBL) Submitted Name of Target Chain>


> <UniProt (TrEMBL) Entry Name of Target Chain>


> <UniProt (TrEMBL) Primary ID of Target Chain>


> <UniProt (TrEMBL) Secondary ID(s) of Target Chain>


> <UniProt (TrEMBL) Alternative ID(s) of Target Chain>


$$$$

  Mrv0541 11231422322D          

 35 36  0  0  0  0            999 V2000
   -2.6486  -12.2948    0.0000 C   0  0  2  0  0  0  0  0  0  0  0  0
   -1.6669  -12.3335    0.0000 C   0  0  0  0  0  0  0  0  0  0  0  0
   -2.8981  -13.0772    0.0000 O   0  0  0  0  0  0  0  0  0  0  0  0
   -1.4647  -13.1367    0.0000 C   0  0  0  0  0  0  0  0  0  0  0  0
   -3.6781  -13.3423    0.0000 C   0  0  0  0  0  0  0  0  0  0  0  0
   -0.6940  -13.3773    0.0000 N   0  0  0  0  0  0  0  0  0  0  0  0
   -3.6932  -14.1518    0.0000 C   0  0  2  0  0  0  0  0  0  0  0  0
   -0.6689  -14.2779    0.0000 C   0  0  2  0  0  0  0  0  0  0  0  0
   -2.9239  -14.4063    0.0000 N   0  0  0  0  0  0  0  0  0  0  0  0
   -1.5351  -14.4297    0.0000 C   0  0  0  0  0  0  0  0  0  0  0  0
   -2.8832  -15.1994    0.0000 C   0  0  0  0  0  0  0  0  0  0  0  0
   -1.5295  -15.2214    0.0000 N   0  0  0  0  0  0  0  0  0  0  0  0
   -2.1792  -15.4734    0.0000 C   0  0  1  0  0  0  0  0  0  0  0  0
    0.0843  -14.7608    0.0000 C   0  0  0  0  0  0  0  0  0  0  0  0
    0.8816  -14.3546    0.0000 C   0  0  0  0  0  0  0  0  0  0  0  0
    1.6303  -14.8462    0.0000 C   0  0  0  0  0  0  0  0  0  0  0  0
    2.4297  -14.4385    0.0000 C   0  0  0  0  0  0  0  0  0  0  0  0
    2.4800  -13.5473    0.0000 C   0  0  0  0  0  0  0  0  0  0  0  0
    1.7169  -13.0530    0.0000 C   0  0  0  0  0  0  0  0  0  0  0  0
    0.9244  -13.4600    0.0000 C   0  0  0  0  0  0  0  0  0  0  0  0
   -2.0565  -13.7047    0.0000 O   0  0  0  0  0  0  0  0  0  0  0  0
   -3.0559  -11.5827    0.0000 C   0  0  2  0  0  0  0  0  0  0  0  0
   -2.6355  -10.8746    0.0000 C   0  0  0  0  0  0  0  0  0  0  0  0
   -3.8707  -11.5733    0.0000 C   0  0  0  0  0  0  0  0  0  0  0  0
   -1.8106  -10.8851    0.0000 C   0  0  0  0  0  0  0  0  0  0  0  0
   -1.3926  -10.1813    0.0000 C   0  0  0  0  0  0  0  0  0  0  0  0
   -0.5719  -10.1876    0.0000 C   0  0  0  0  0  0  0  0  0  0  0  0
   -4.3375  -12.8576    0.0000 O   0  0  0  0  0  0  0  0  0  0  0  0
   -3.5495  -15.6721    0.0000 O   0  0  0  0  0  0  0  0  0  0  0  0
   -2.1813  -16.2997    0.0000 C   0  0  0  0  0  0  0  0  0  0  0  0
   -2.3283  -14.2009    0.0000 O   0  0  0  0  0  0  0  0  0  0  0  0
   -4.3593  -14.6278    0.0000 C   0  0  2  0  0  0  0  0  0  0  0  0
   -5.1085  -14.2817    0.0000 C   0  0  0  0  0  0  0  0  0  0  0  0
   -5.1810  -13.4614    0.0000 C   0  0  0  0  0  0  0  0  0  0  0  0
   -4.2857  -15.4450    0.0000 C   0  0  0  0  0  0  0  0  0  0  0  0
  1  3  1  0  0  0  0
  2  4  1  0  0  0  0
  3  5  1  0  0  0  0
  4  6  1  0  0  0  0
  7  5  1  0  0  0  0
  8  6  1  0  0  0  0
  7  9  1  0  0  0  0
  8 10  1  0  0  0  0
  9 11  1  0  0  0  0
 10 12  1  0  0  0  0
 13 11  1  0  0  0  0
 13 12  1  0  0  0  0
  1  2  1  0  0  0  0
  8 14  1  1  0  0  0
 14 15  1  0  0  0  0
 15 16  2  0  0  0  0
 16 17  1  0  0  0  0
 17 18  2  0  0  0  0
 18 19  1  0  0  0  0
 19 20  2  0  0  0  0
 20 15  1  0  0  0  0
  4 21  2  0  0  0  0
  1 22  1  6  0  0  0
 22 23  1  0  0  0  0
 22 24  1  1  0  0  0
 23 25  1  0  0  0  0
 25 26  1  0  0  0  0
 26 27  1  0  0  0  0
  5 28  2  0  0  0  0
 11 29  2  0  0  0  0
 13 30  1  1  0  0  0
 10 31  2  0  0  0  0
  7 32  1  6  0  0  0
 32 33  1  0  0  0  0
 33 34  1  0  0  0  0
 32 35  1  1  0  0  0
M  END
> <From>
www.bindingDB.org

> <BindingDB Reactant_set_id>
51125421

> <Ligand InChI>
InChI=1S/C27H41N3O5/c1-6-8-12-18(4)22-16-23(31)29-21(15-20-13-10-9-11-14-20)26(33)28-19(5)25(32)30-24(17(3)7-2)27(34)35-22/h9-11,13-14,17-19,21-22,24H,6-8,12,15-16H2,1-5H3,(H,28,33)(H,29,31)(H,30,32)/t17-,18-,19-,21-,22-,24+/m0/s1

> <Ligand InChI Key>
VEELKRGSLCNVAR-QVZGIDAOSA-N

> <BindingDB MonomerID>
50360305

> <BindingDB Ligand Name>
CHEMBL409855::US9149492, Beauveriolide III

> <Target Name>
Sterol O-acyltransferase 2

> <Target Source Organism According to Curator or DataSource>


> <Ki (nM)>


> <IC50 (nM)>
>20000

> <Kd (nM)>


> <EC50 (nM)>


> <kon (M-1-s-1)>


> <koff (s-1)>


> <pH>


> <Temp (C)>


> <Curation/DataSource>
ChEMBL

> <Article DOI>
10.1016/j.bmcl.2018.03.077

> <BindingDB Entry DOI>
10.7270/Q25Q4ZRC

> <PMID>
29631961

> <PubChem AID>


> <Patent Number>


> <Authors>
Kapojos, MM; Abdjul, DB; Yamazaki, H; Ohshiro, T; Rotinsulu, H; Wewengkang, DS; Sumilat, DA; Tomoda, H; Namikoshi, M; Uchida, R

> <Institution>
Tohoku Medical and Pharmaceutical University

> <Link to Ligand in BindingDB>
http://www.bindingdb.org/bind/chemsearch/marvin/MolStructure.jsp?monomerid=50360305

> <Link to Target in BindingDB>
http://www.bindingdb.org/jsp/dbsearch/PrimarySearch_ki.jsp?energyterm=kJ/mole&tag=pol&polymerid=50007205&target=Sterol+O-acyltransferase+2&column=ki&startPg=0&Increment=50&submit=Search

> <Link to Ligand-Target Pair in BindingDB>
http://www.bindingdb.org/jsp/dbsearch/PrimarySearch_ki.jsp?energyterm=kJ/mole&tag=r21&monomerid=50360305&enzyme=Sterol+O-acyltransferase+2&column=ki&startPg=0&Increment=50&submit=Search

> <Ligand HET ID in PDB>


> <PDB ID(s) for Ligand-Target Complex>


> <PubChem CID>
9848317

> <PubChem SID>
136964367

> <ChEBI ID of Ligand>


> <ChEMBL ID of Ligand>
CHEMBL409855

> <DrugBank ID of Ligand>


> <IUPHAR_GRAC ID of Ligand>


> <KEGG ID of Ligand>


> <ZINC ID of Ligand>
ZINC44146312

> <Number of Protein Chains in Target (>1 implies a multichain complex)>
1

> <BindingDB Target Chain Sequence>
MEPGGARLRLQRTEGPGGEREHQPCRDGNTETHRAPDLVKWTRHMEAVKAQLLEQAQGQLRELLDRAMWEAIQSYPSQDKPPPLPPPDSLSRTQEPSLGKQKVFIIRKSLLDELMEVQHFRTIYHMFIAGLCVFIISTLAIDFIDEGRLLLEFDLLIFSFGQLPLALVTWVPMFLSTLLAPYQALRLWARPGARGTWTLGAGLGCALLAAHALVLCALPVHVAVEHQLPPASRCVLVFEQVRFLMKSYSFLREAVPGTLRARRGEGIQAPSFSSYLYFLFCPTLIYRETYPRTPYIRWNYVAKNFAQALGCVLYACFILGRLCVPVFANMSREPFSTRALVLSILHATLPGIFMLLLIFFAFLHCWLNAFAEMLRFGDRMFYRDWWNSTSFSNYYRTWNVVVHDWLYSYVYQDGLWLLGAQARGVAMLGVFLVSAVAHEYIFCFVLGFFYPVMLILFLVIGGMLNFMMHDQHTGPAWNVLMWTMLFLGQGIQVSLYCQEWYARRHCPLPQTTFWGLVTPRSWSCHT

> <PDB ID(s) of Target Chain>


> <UniProt (SwissProt) Recommended Name of Target Chain>
Sterol O-acyltransferase 2

> <UniProt (SwissProt) Entry Name of Target Chain>
ACAT-2

> <UniProt (SwissProt) Primary ID of Target Chain>
O77759

> <UniProt (SwissProt) Secondary ID(s) of Target Chain>


> <UniProt (SwissProt) Alternative ID(s) of Target Chain>


> <UniProt (TrEMBL) Submitted Name of Target Chain>


> <UniProt (TrEMBL) Entry Name of Target Chain>


> <UniProt (TrEMBL) Primary ID of Target Chain>


> <UniProt (TrEMBL) Secondary ID(s) of Target Chain>


> <UniProt (TrEMBL) Alternative ID(s) of Target Chain>


$$$$

  Mrv0541 11221400292D          

 29 32  0  0  0  0            999 V2000
   -4.3192  -12.2421    0.0000 C   0  0  0  0  0  0  0  0  0  0  0  0
   -3.6086  -11.8300    0.0000 C   0  0  0  0  0  0  0  0  0  0  0  0
   -2.8944  -12.2384    0.0000 C   0  0  0  0  0  0  0  0  0  0  0  0
   -2.8956  -13.0701    0.0000 C   0  0  0  0  0  0  0  0  0  0  0  0
   -2.1799  -13.4847    0.0000 O   0  0  0  0  0  0  0  0  0  0  0  0
   -2.1775  -11.8213    0.0000 C   0  0  0  0  0  0  0  0  0  0  0  0
   -1.4572  -12.2405    0.0000 C   0  0  0  0  0  0  0  0  0  0  0  0
   -1.4585  -13.0680    0.0000 C   0  0  0  0  0  0  0  0  0  0  0  0
   -0.7436  -13.4811    0.0000 C   0  0  0  0  0  0  0  0  0  0  0  0
   -0.7452  -11.8278    0.0000 C   0  0  0  0  0  0  0  0  0  0  0  0
   -3.6068  -13.4803    0.0000 C   0  0  0  0  0  0  0  0  0  0  0  0
   -4.3235  -13.0695    0.0000 C   0  0  0  0  0  0  0  0  0  0  0  0
   -5.0337  -13.4826    0.0000 O   0  0  0  0  0  0  0  0  0  0  0  0
   -0.7475  -11.0042    0.0000 O   0  0  0  0  0  0  0  0  0  0  0  0
   -2.1775  -10.9977    0.0000 O   0  0  0  0  0  0  0  0  0  0  0  0
   -5.0318  -11.8291    0.0000 O   0  0  0  0  0  0  0  0  0  0  0  0
   -3.6057  -14.3039    0.0000 C   0  0  0  0  0  0  0  0  0  0  0  0
   -2.8918  -14.7147    0.0000 C   0  0  0  0  0  0  0  0  0  0  0  0
   -2.8907  -15.5383    0.0000 C   0  0  0  0  0  0  0  0  0  0  0  0
   -2.1769  -15.9492    0.0000 C   0  0  0  0  0  0  0  0  0  0  0  0
   -3.6034  -15.9511    0.0000 C   0  0  0  0  0  0  0  0  0  0  0  0
   -0.0297  -12.2371    0.0000 C   0  0  0  0  0  0  0  0  0  0  0  0
   -0.0247  -13.0699    0.0000 C   0  0  0  0  0  0  0  0  0  0  0  0
    0.7690  -13.3226    0.0000 O   0  0  0  0  0  0  0  0  0  0  0  0
    1.2545  -12.6458    0.0000 C   0  0  0  0  0  0  0  0  0  0  0  0
    0.7609  -11.9751    0.0000 C   0  0  0  0  0  0  0  0  0  0  0  0
    2.0781  -12.6408    0.0000 C   0  0  0  0  0  0  0  0  0  0  0  0
    0.3411  -11.2563    0.0000 C   0  0  0  0  0  0  0  0  0  0  0  0
    1.4684  -11.5558    0.0000 C   0  0  0  0  0  0  0  0  0  0  0  0
 12 13  1  0  0  0  0
  4  5  1  0  0  0  0
 10 14  1  0  0  0  0
  5  8  1  0  0  0  0
  6 15  2  0  0  0  0
  7  6  1  0  0  0  0
  1 16  1  0  0  0  0
  2  1  1  0  0  0  0
 11 17  1  0  0  0  0
  3  4  1  0  0  0  0
 17 18  1  0  0  0  0
  7  8  1  0  0  0  0
 18 19  2  0  0  0  0
  1 12  2  0  0  0  0
 19 20  1  0  0  0  0
  8  9  2  0  0  0  0
 19 21  1  0  0  0  0
 22 23  2  0  0  0  0
  9 23  1  0  0  0  0
 11  4  2  0  0  0  0
 22 10  1  0  0  0  0
 10  7  2  0  0  0  0
 11 12  1  0  0  0  0
 23 24  1  0  0  0  0
 24 25  1  0  0  0  0
 25 26  1  0  0  0  0
 26 22  1  0  0  0  0
 25 27  1  0  0  0  0
  3  2  2  0  0  0  0
 26 28  1  0  0  0  0
  3  6  1  0  0  0  0
 26 29  1  0  0  0  0
M  END
> <From>
www.bindingDB.org

> <BindingDB Reactant_set_id>
50357572

> <Ligand InChI>
InChI=1S/C23H24O6/c1-10(2)6-7-12-19(25)14(24)8-13-20(26)17-15(29-22(12)13)9-16-18(21(17)27)23(4,5)11(3)28-16/h6,8-9,11,24-25,27H,7H2,1-5H3

> <Ligand InChI Key>
ZYJVDWWKUSJAQY-UHFFFAOYSA-N

> <BindingDB MonomerID>
50175018

> <BindingDB Ligand Name>
4,7,8-trihydroxy-2,3,3-trimethyl-9-(3-methylbut-2-enyl)-2,3-dihydrofuro[3,2-b]xanthen-5-one::CHEMBL371024::cudraxanthone M

> <Target Name>
Sterol O-acyltransferase 2

> <Target Source Organism According to Curator or DataSource>


> <Ki (nM)>


> <IC50 (nM)>
 23200

> <Kd (nM)>


> <EC50 (nM)>


> <kon (M-1-s-1)>


> <koff (s-1)>


> <pH>


> <Temp (C)>


> <Curation/DataSource>
ChEMBL

> <Article DOI>
10.1016/j.bmcl.2006.08.032

> <BindingDB Entry DOI>
10.7270/Q2PV6K0R

> <PMID>
16919944

> <PubChem AID>


> <Patent Number>


> <Authors>
Park, KH; Park, YD; Han, JM; Im, KR; Lee, BW; Jeong, IY; Jeong, TS; Lee, WS

> <Institution>
National Research Laboratory of Lipid Metabolism and Atherosclerosis

> <Link to Ligand in BindingDB>
http://www.bindingdb.org/bind/chemsearch/marvin/MolStructure.jsp?monomerid=50175018

> <Link to Target in BindingDB>
http://www.bindingdb.org/jsp/dbsearch/PrimarySearch_ki.jsp?energyterm=kJ/mole&tag=pol&polymerid=7773&target=Sterol+O-acyltransferase+2&column=ki&startPg=0&Increment=50&submit=Search

> <Link to Ligand-Target Pair in BindingDB>
http://www.bindingdb.org/jsp/dbsearch/PrimarySearch_ki.jsp?energyterm=kJ/mole&tag=r21&monomerid=50175018&enzyme=Sterol+O-acyltransferase+2&column=ki&startPg=0&Increment=50&submit=Search

> <Ligand HET ID in PDB>


> <PDB ID(s) for Ligand-Target Complex>


> <PubChem CID>
11689770

> <PubChem SID>
104060759

> <ChEBI ID of Ligand>


> <ChEMBL ID of Ligand>
CHEMBL371024

> <DrugBank ID of Ligand>


> <IUPHAR_GRAC ID of Ligand>


> <KEGG ID of Ligand>


> <ZINC ID of Ligand>
ZINC13412048

> <Number of Protein Chains in Target (>1 implies a multichain complex)>
1

> <BindingDB Target Chain Sequence>
MEPGGARLRLQRTEGLGGERERQPCGDGNTETHRAPDLVQWTRHMEAVKAQLLEQAQGQLRELLDRAMREAIQSYPSQDKPLPPPPPGSLSRTQEPSLGKQKVFIIRKSLLDELMEVQHFRTIYHMFIAGLCVFIISTLAIDFIDEGRLLLEFDLLIFSFGQLPLALVTWVPMFLSTLLAPYQALRLWARGTWTQATGLGCALLAAHAVVLCALPVHVAVEHQLPPASRCVLVFEQVRFLMKSYSFLREAVPGTLRARRGEGIQAPSFSSYLYFLFCPTLIYRETYPRTPYVRWNYVAKNFAQALGCVLYACFILGRLCVPVFANMSREPFSTRALVLSILHATLPGIFMLLLIFFAFLHCWLNAFAEMLRFGDRMFYRDWWNSTSFSNYYRTWNVVVHDWLYSYVYQDGLRLLGARARGVAMLGVFLVSAVAHEYIFCFVLGFFYPVMLILFLVIGGMLNFMMHDQRTGPAWNVLMWTMLFLGQGIQVSLYCQEWYARRHCPLPQATFWGLVTPRSWSCHT

> <PDB ID(s) of Target Chain>


> <UniProt (SwissProt) Recommended Name of Target Chain>
Sterol O-acyltransferase 2

> <UniProt (SwissProt) Entry Name of Target Chain>
ACAT-2

> <UniProt (SwissProt) Primary ID of Target Chain>
O75908

> <UniProt (SwissProt) Secondary ID(s) of Target Chain>
F5H7W4 I6L9H9 Q4VB99 Q4VBA1 Q96TD4 Q9UNR2

> <UniProt (SwissProt) Alternative ID(s) of Target Chain>


> <UniProt (TrEMBL) Submitted Name of Target Chain>


> <UniProt (TrEMBL) Entry Name of Target Chain>


> <UniProt (TrEMBL) Primary ID of Target Chain>


> <UniProt (TrEMBL) Secondary ID(s) of Target Chain>


> <UniProt (TrEMBL) Alternative ID(s) of Target Chain>


$$$$

  Mrv0541 11221401292D          

 31 34  0  0  1  0            999 V2000
    6.7069  -16.6292    0.0000 C   0  0  0  0  0  0  0  0  0  0  0  0
    6.7057  -17.4565    0.0000 C   0  0  0  0  0  0  0  0  0  0  0  0
    7.4205  -17.8694    0.0000 C   0  0  0  0  0  0  0  0  0  0  0  0
    7.4187  -16.2164    0.0000 C   0  0  0  0  0  0  0  0  0  0  0  0
    8.1341  -16.6255    0.0000 C   0  0  0  0  0  0  0  0  0  0  0  0
    8.1349  -17.4524    0.0000 C   0  0  0  0  0  0  0  0  0  0  0  0
    8.8502  -17.8633    0.0000 O   0  0  0  0  0  0  0  0  0  0  0  0
    9.5652  -17.4486    0.0000 C   0  0  0  0  0  0  0  0  0  0  0  0
    9.5604  -16.6186    0.0000 C   0  0  0  0  0  0  0  0  0  0  0  0
    8.8445  -16.2114    0.0000 C   0  0  0  0  0  0  0  0  0  0  0  0
    5.9923  -16.2168    0.0000 C   0  0  2  0  0  0  0  0  0  0  0  0
    5.9903  -15.3864    0.0000 C   0  0  0  0  0  0  0  0  0  0  0  0
    5.2798  -14.9742    0.0000 C   0  0  0  0  0  0  0  0  0  0  0  0
    5.2762  -16.6261    0.0000 O   0  0  0  0  0  0  0  0  0  0  0  0
    4.5612  -16.2093    0.0000 C   0  0  0  0  0  0  0  0  0  0  0  0
    4.5661  -15.3852    0.0000 C   0  0  0  0  0  0  0  0  0  0  0  0
    3.8559  -14.9707    0.0000 C   0  0  0  0  0  0  0  0  0  0  0  0
    3.1404  -15.3792    0.0000 C   0  0  0  0  0  0  0  0  0  0  0  0
    3.1395  -16.2065    0.0000 C   0  0  0  0  0  0  0  0  0  0  0  0
    3.8503  -16.6173    0.0000 C   0  0  0  0  0  0  0  0  0  0  0  0
    5.2811  -14.1492    0.0000 O   0  0  0  0  0  0  0  0  0  0  0  0
    3.8599  -14.1457    0.0000 O   0  0  0  0  0  0  0  0  0  0  0  0
    2.4272  -14.9646    0.0000 C   0  0  0  0  0  0  0  0  0  0  0  0
    2.4296  -14.1396    0.0000 C   0  0  0  0  0  0  0  0  0  0  0  0
    1.7164  -13.7250    0.0000 C   0  0  0  0  0  0  0  0  0  0  0  0
    1.7188  -12.9000    0.0000 C   0  0  0  0  0  0  0  0  0  0  0  0
    1.0007  -14.1354    0.0000 C   0  0  0  0  0  0  0  0  0  0  0  0
    2.4248  -16.6185    0.0000 O   0  0  0  0  0  0  0  0  0  0  0  0
    5.9909  -17.8685    0.0000 O   0  0  0  0  0  0  0  0  0  0  0  0
    9.5583  -18.2709    0.0000 C   0  0  0  0  0  0  0  0  0  0  0  0
   10.2864  -17.0447    0.0000 C   0  0  0  0  0  0  0  0  0  0  0  0
 15 14  1  0  0  0  0
  6  7  1  0  0  0  0
  1  2  2  0  0  0  0
 15 16  2  0  0  0  0
  7  8  1  0  0  0  0
 16 17  1  0  0  0  0
  5  4  2  0  0  0  0
 17 18  2  0  0  0  0
  8  9  1  0  0  0  0
 18 19  1  0  0  0  0
  4  1  1  0  0  0  0
 19 20  2  0  0  0  0
 20 15  1  0  0  0  0
  9 10  2  0  0  0  0
 13 21  2  0  0  0  0
 10  5  1  0  0  0  0
 17 22  1  0  0  0  0
 18 23  1  0  0  0  0
 11  1  1  1  0  0  0
 23 24  1  0  0  0  0
 11 12  1  0  0  0  0
 24 25  2  0  0  0  0
  2  3  1  0  0  0  0
 25 26  1  0  0  0  0
  5  6  1  0  0  0  0
 25 27  1  0  0  0  0
  3  6  2  0  0  0  0
 19 28  1  0  0  0  0
 11 14  1  0  0  0  0
  2 29  1  0  0  0  0
 12 13  1  0  0  0  0
  8 30  1  0  0  0  0
 13 16  1  0  0  0  0
  8 31  1  0  0  0  0
M  END
> <From>
www.bindingDB.org

> <BindingDB Reactant_set_id>
50357573

> <Ligand InChI>
InChI=1S/C25H26O6/c1-13(2)5-6-15-17(26)11-22-23(24(15)29)19(28)12-21(30-22)16-9-14-7-8-25(3,4)31-20(14)10-18(16)27/h5,7-11,21,26-27,29H,6,12H2,1-4H3/t21-/m0/s1

> <Ligand InChI Key>
XPMCEWWRVJLSLM-NRFANRHFSA-N

> <BindingDB MonomerID>
50193719

> <BindingDB Ligand Name>
(S)-5,7,7'-trihydroxy-2',2'-dimethyl-6-(3-methylbut-2-enyl)-2,6'-bichroman-4-one::(S)-5,7-dihydroxy-2-(7-hydroxy-2,2-dimethyl-2H-chromen-6-yl)-6-(3-methylbut-2-enyl)chroman-4-one::CHEMBL220746::cudraflavanone A

> <Target Name>
Sterol O-acyltransferase 2

> <Target Source Organism According to Curator or DataSource>


> <Ki (nM)>


> <IC50 (nM)>
 24800

> <Kd (nM)>


> <EC50 (nM)>


> <kon (M-1-s-1)>


> <koff (s-1)>


> <pH>


> <Temp (C)>


> <Curation/DataSource>
ChEMBL

> <Article DOI>
10.1016/j.bmcl.2006.08.032

> <BindingDB Entry DOI>
10.7270/Q2PV6K0R

> <PMID>
16919944

> <PubChem AID>


> <Patent Number>


> <Authors>
Park, KH; Park, YD; Han, JM; Im, KR; Lee, BW; Jeong, IY; Jeong, TS; Lee, WS

> <Institution>
National Research Laboratory of Lipid Metabolism and Atherosclerosis

> <Link to Ligand in BindingDB>
http://www.bindingdb.org/bind/chemsearch/marvin/MolStructure.jsp?monomerid=50193719

> <Link to Target in BindingDB>
http://www.bindingdb.org/jsp/dbsearch/PrimarySearch_ki.jsp?energyterm=kJ/mole&tag=pol&polymerid=7773&target=Sterol+O-acyltransferase+2&column=ki&startPg=0&Increment=50&submit=Search

> <Link to Ligand-Target Pair in BindingDB>
http://www.bindingdb.org/jsp/dbsearch/PrimarySearch_ki.jsp?energyterm=kJ/mole&tag=r21&monomerid=50193719&enzyme=Sterol+O-acyltransferase+2&column=ki&startPg=0&Increment=50&submit=Search

> <Ligand HET ID in PDB>


> <PDB ID(s) for Ligand-Target Complex>


> <PubChem CID>
21721847

> <PubChem SID>
104076118

> <ChEBI ID of Ligand>


> <ChEMBL ID of Ligand>
CHEMBL220746

> <DrugBank ID of Ligand>


> <IUPHAR_GRAC ID of Ligand>


> <KEGG ID of Ligand>


> <ZINC ID of Ligand>
ZINC13411934

> <Number of Protein Chains in Target (>1 implies a multichain complex)>
1

> <BindingDB Target Chain Sequence>
MEPGGARLRLQRTEGLGGERERQPCGDGNTETHRAPDLVQWTRHMEAVKAQLLEQAQGQLRELLDRAMREAIQSYPSQDKPLPPPPPGSLSRTQEPSLGKQKVFIIRKSLLDELMEVQHFRTIYHMFIAGLCVFIISTLAIDFIDEGRLLLEFDLLIFSFGQLPLALVTWVPMFLSTLLAPYQALRLWARGTWTQATGLGCALLAAHAVVLCALPVHVAVEHQLPPASRCVLVFEQVRFLMKSYSFLREAVPGTLRARRGEGIQAPSFSSYLYFLFCPTLIYRETYPRTPYVRWNYVAKNFAQALGCVLYACFILGRLCVPVFANMSREPFSTRALVLSILHATLPGIFMLLLIFFAFLHCWLNAFAEMLRFGDRMFYRDWWNSTSFSNYYRTWNVVVHDWLYSYVYQDGLRLLGARARGVAMLGVFLVSAVAHEYIFCFVLGFFYPVMLILFLVIGGMLNFMMHDQRTGPAWNVLMWTMLFLGQGIQVSLYCQEWYARRHCPLPQATFWGLVTPRSWSCHT

> <PDB ID(s) of Target Chain>


> <UniProt (SwissProt) Recommended Name of Target Chain>
Sterol O-acyltransferase 2

> <UniProt (SwissProt) Entry Name of Target Chain>
ACAT-2

> <UniProt (SwissProt) Primary ID of Target Chain>
O75908

> <UniProt (SwissProt) Secondary ID(s) of Target Chain>
F5H7W4 I6L9H9 Q4VB99 Q4VBA1 Q96TD4 Q9UNR2

> <UniProt (SwissProt) Alternative ID(s) of Target Chain>


> <UniProt (TrEMBL) Submitted Name of Target Chain>


> <UniProt (TrEMBL) Entry Name of Target Chain>


> <UniProt (TrEMBL) Primary ID of Target Chain>


> <UniProt (TrEMBL) Secondary ID(s) of Target Chain>


> <UniProt (TrEMBL) Alternative ID(s) of Target Chain>


$$$$

  Mrv0541 11221402012D          

 27 28  0  0  0  0            999 V2000
   -4.8231  -12.6128    0.0000 C   0  0  0  0  0  0  0  0  0  0  0  0
   -4.8243  -13.4404    0.0000 C   0  0  0  0  0  0  0  0  0  0  0  0
   -4.1114  -13.8534    0.0000 C   0  0  0  0  0  0  0  0  0  0  0  0
   -4.1134  -12.2001    0.0000 C   0  0  0  0  0  0  0  0  0  0  0  0
   -3.3953  -12.6089    0.0000 C   0  0  0  0  0  0  0  0  0  0  0  0
   -3.3915  -13.4424    0.0000 C   0  0  0  0  0  0  0  0  0  0  0  0
   -2.6718  -13.8538    0.0000 C   0  0  0  0  0  0  0  0  0  0  0  0
   -1.9511  -13.4360    0.0000 C   0  0  0  0  0  0  0  0  0  0  0  0
   -1.9547  -12.6025    0.0000 C   0  0  0  0  0  0  0  0  0  0  0  0
   -2.6792  -12.1866    0.0000 C   0  0  0  0  0  0  0  0  0  0  0  0
   -4.1173  -11.3751    0.0000 O   0  0  0  0  0  0  0  0  0  0  0  0
   -4.1140  -14.6783    0.0000 O   0  0  0  0  0  0  0  0  0  0  0  0
   -2.6840  -11.3616    0.0000 O   0  0  0  0  0  0  0  0  0  0  0  0
   -2.6693  -14.6788    0.0000 O   0  0  0  0  0  0  0  0  0  0  0  0
   -1.2354  -13.8463    0.0000 C   0  0  0  0  0  0  0  0  0  0  0  0
   -1.2328  -14.6713    0.0000 O   0  0  0  0  0  0  0  0  0  0  0  0
   -0.5222  -13.4316    0.0000 C   0  0  0  0  0  0  0  0  0  0  0  0
    0.9067  -13.4273    0.0000 C   0  0  0  0  0  0  0  0  0  0  0  0
    1.6224  -13.8376    0.0000 C   0  0  0  0  0  0  0  0  0  0  0  0
    0.9042  -12.6024    0.0000 C   0  0  0  0  0  0  0  0  0  0  0  0
    0.1935  -13.8419    0.0000 C   0  0  0  0  0  0  0  0  0  0  0  0
   -0.5171  -15.0816    0.0000 C   0  0  0  0  0  0  0  0  0  0  0  0
   -0.5146  -15.9065    0.0000 C   0  0  0  0  0  0  0  0  0  0  0  0
    0.1960  -14.6669    0.0000 O   0  0  0  0  0  0  0  0  0  0  0  0
   -1.2278  -16.3212    0.0000 C   0  0  0  0  0  0  0  0  0  0  0  0
   -1.2252  -17.1462    0.0000 C   0  0  0  0  0  0  0  0  0  0  0  0
   -1.9435  -15.9109    0.0000 C   0  0  0  0  0  0  0  0  0  0  0  0
 10 13  1  0  0  0  0
  3  6  2  0  0  0  0
  7 14  1  0  0  0  0
  1  2  2  0  0  0  0
  8 15  1  0  0  0  0
  5  4  2  0  0  0  0
 15 16  1  0  0  0  0
  4  1  1  0  0  0  0
 15 17  2  0  0  0  0
 17 21  1  4  0  0  0
  5 10  1  0  0  0  0
 21 18  2  0  0  0  0
  6  7  1  0  0  0  0
 18 19  1  0  0  0  0
  7  8  2  0  0  0  0
 18 20  1  0  0  0  0
  8  9  1  0  0  0  0
  9 10  2  0  0  0  0
 16 22  1  0  0  0  0
  5  6  1  0  0  0  0
 22 23  1  0  0  0  0
  4 11  1  0  0  0  0
 22 24  2  0  0  0  0
 23 25  1  0  0  0  0
  3 12  1  0  0  0  0
 25 26  1  0  0  0  0
  2  3  1  0  0  0  0
 25 27  1  0  0  0  0
M  END
> <From>
www.bindingDB.org

> <BindingDB Reactant_set_id>
50367879

> <Ligand InChI>
InChI=1S/C21H24O6/c1-11(2)5-8-17(27-18(25)9-12(3)4)13-10-16(24)19-14(22)6-7-15(23)20(19)21(13)26/h5-8,10,12,22-24,26H,9H2,1-4H3

> <Ligand InChI Key>
RCLASMSCTFWRIF-UHFFFAOYSA-N

> <BindingDB MonomerID>
50200396

> <BindingDB Ligand Name>
(R)-1-(5,8-dihydroxy-1,4-dioxo-1,4-dihydronaphthalen-2-yl)-4-methylpent-3-enyl 3-methylbutanoate::CHEMBL395857

> <Target Name>
Sterol O-acyltransferase 2

> <Target Source Organism According to Curator or DataSource>


> <Ki (nM)>


> <IC50 (nM)>
 25100

> <Kd (nM)>


> <EC50 (nM)>


> <kon (M-1-s-1)>


> <koff (s-1)>


> <pH>


> <Temp (C)>


> <Curation/DataSource>
ChEMBL

> <Article DOI>
10.1016/j.bmcl.2006.11.024

> <BindingDB Entry DOI>
10.7270/Q2H70FFW

> <PMID>
17157006

> <PubChem AID>


> <Patent Number>


> <Authors>
An, S; Park, YD; Paik, YK; Jeong, TS; Lee, WS

> <Institution>
National Research Laboratory of Lipid Metabolism and Atherosclerosis

> <Link to Ligand in BindingDB>
http://www.bindingdb.org/bind/chemsearch/marvin/MolStructure.jsp?monomerid=50200396

> <Link to Target in BindingDB>
http://www.bindingdb.org/jsp/dbsearch/PrimarySearch_ki.jsp?energyterm=kJ/mole&tag=pol&polymerid=7773&target=Sterol+O-acyltransferase+2&column=ki&startPg=0&Increment=50&submit=Search

> <Link to Ligand-Target Pair in BindingDB>
http://www.bindingdb.org/jsp/dbsearch/PrimarySearch_ki.jsp?energyterm=kJ/mole&tag=r21&monomerid=50200396&enzyme=Sterol+O-acyltransferase+2&column=ki&startPg=0&Increment=50&submit=Search

> <Ligand HET ID in PDB>


> <PDB ID(s) for Ligand-Target Complex>


> <PubChem CID>
91936076

> <PubChem SID>
104080730

> <ChEBI ID of Ligand>


> <ChEMBL ID of Ligand>
CHEMBL395857

> <DrugBank ID of Ligand>


> <IUPHAR_GRAC ID of Ligand>


> <KEGG ID of Ligand>


> <ZINC ID of Ligand>
ZINC02516907

> <Number of Protein Chains in Target (>1 implies a multichain complex)>
1

> <BindingDB Target Chain Sequence>
MEPGGARLRLQRTEGLGGERERQPCGDGNTETHRAPDLVQWTRHMEAVKAQLLEQAQGQLRELLDRAMREAIQSYPSQDKPLPPPPPGSLSRTQEPSLGKQKVFIIRKSLLDELMEVQHFRTIYHMFIAGLCVFIISTLAIDFIDEGRLLLEFDLLIFSFGQLPLALVTWVPMFLSTLLAPYQALRLWARGTWTQATGLGCALLAAHAVVLCALPVHVAVEHQLPPASRCVLVFEQVRFLMKSYSFLREAVPGTLRARRGEGIQAPSFSSYLYFLFCPTLIYRETYPRTPYVRWNYVAKNFAQALGCVLYACFILGRLCVPVFANMSREPFSTRALVLSILHATLPGIFMLLLIFFAFLHCWLNAFAEMLRFGDRMFYRDWWNSTSFSNYYRTWNVVVHDWLYSYVYQDGLRLLGARARGVAMLGVFLVSAVAHEYIFCFVLGFFYPVMLILFLVIGGMLNFMMHDQRTGPAWNVLMWTMLFLGQGIQVSLYCQEWYARRHCPLPQATFWGLVTPRSWSCHT

> <PDB ID(s) of Target Chain>


> <UniProt (SwissProt) Recommended Name of Target Chain>
Sterol O-acyltransferase 2

> <UniProt (SwissProt) Entry Name of Target Chain>
ACAT-2

> <UniProt (SwissProt) Primary ID of Target Chain>
O75908

> <UniProt (SwissProt) Secondary ID(s) of Target Chain>
F5H7W4 I6L9H9 Q4VB99 Q4VBA1 Q96TD4 Q9UNR2

> <UniProt (SwissProt) Alternative ID(s) of Target Chain>


> <UniProt (TrEMBL) Submitted Name of Target Chain>


> <UniProt (TrEMBL) Entry Name of Target Chain>


> <UniProt (TrEMBL) Primary ID of Target Chain>


> <UniProt (TrEMBL) Secondary ID(s) of Target Chain>


> <UniProt (TrEMBL) Alternative ID(s) of Target Chain>


$$$$

  SciTegic12241708182D

 23 26  0  0  0  0            999 V2000
    3.5783   -4.0323    0.0000 C   0  0  2  0  0  0
    4.3666   -3.8177    0.0000 C   0  0
    4.5737   -3.0321    0.0000 C   0  0  1  0  0  0
    3.9958   -2.4555    0.0000 C   0  0
    3.2075   -2.6701    0.0000 C   0  0  2  0  0  0
    2.9971   -3.4613    0.0000 O   0  0
    1.3853   -4.2923    0.0000 C   0  0
    1.3842   -5.1118    0.0000 C   0  0
    2.0922   -5.5208    0.0000 C   0  0
    2.0904   -3.8834    0.0000 C   0  0
    2.7991   -4.2887    0.0000 C   0  0
    2.7993   -5.1119    0.0000 C   0  0
    3.5823   -5.3660    0.0000 N   0  0
    4.0660   -4.6999    0.0000 C   0  0
    4.8832   -4.6996    0.0000 O   0  0
    2.6279   -2.0940    0.0000 C   0  0
    1.8392   -2.3079    0.0000 C   0  0
    1.2596   -1.7318    0.0000 C   0  0
    5.3625   -2.8185    0.0000 N   0  0
    6.0004   -3.3270    0.0000 C   0  0
    6.6846   -2.8801    0.0000 C   0  0
    6.4710   -2.0913    0.0000 C   0  0
    5.6548   -2.0508    0.0000 C   0  0
  1  2  1  0
  1  6  1  0
  2  3  1  0
  3  4  1  0
  4  5  1  0
  5  6  1  0
  7  8  2  0
  8  9  1  0
  9 12  2  0
 11 10  2  0
 10  7  1  0
 11 12  1  0
 12 13  1  0
 13 14  1  0
 14  1  1  0
  1 11  1  1
 14 15  2  0
  5 16  1  6
 16 17  1  0
 17 18  1  0
  3 19  1  1
 19 20  1  0
 20 21  1  0
 21 22  1  0
 22 23  1  0
 23 19  1  0
M  END
> <From>
www.bindingDB.org

> <BindingDB Reactant_set_id>
50533668

> <Ligand InChI>
InChI=1S/C19H26N2O2/c1-2-7-15-12-14(21-10-5-6-11-21)13-19(23-15)16-8-3-4-9-17(16)20-18(19)22/h3-4,8-9,14-15H,2,5-7,10-13H2,1H3,(H,20,22)/t14-,15-,19+/m1/s1

> <Ligand InChI Key>
SKFGYXYGUMJGPU-CLCXKQKWSA-N

> <BindingDB MonomerID>
50204555

> <BindingDB Ligand Name>
CHEMBL3983935

> <Target Name>
Sterol O-acyltransferase 2

> <Target Source Organism According to Curator or DataSource>


> <Ki (nM)>


> <IC50 (nM)>
 26000

> <Kd (nM)>


> <EC50 (nM)>


> <kon (M-1-s-1)>


> <koff (s-1)>


> <pH>


> <Temp (C)>


> <Curation/DataSource>
ChEMBL

> <Article DOI>
10.1016/j.bmcl.2016.11.008

> <BindingDB Entry DOI>
10.7270/Q2D220KD

> <PMID>
27876317

> <PubChem AID>


> <Patent Number>


> <Authors>
Kobayashi, K; Ohshiro, T; Tomoda, H; Yin, F; Cui, HL; Chouthaiwale, PV; Tanaka, F

> <Institution>
Kitasato University

> <Link to Ligand in BindingDB>
http://www.bindingdb.org/bind/chemsearch/marvin/MolStructure.jsp?monomerid=50204555

> <Link to Target in BindingDB>
http://www.bindingdb.org/jsp/dbsearch/PrimarySearch_ki.jsp?energyterm=kJ/mole&tag=pol&polymerid=50007205&target=Sterol+O-acyltransferase+2&column=ki&startPg=0&Increment=50&submit=Search

> <Link to Ligand-Target Pair in BindingDB>
http://www.bindingdb.org/jsp/dbsearch/PrimarySearch_ki.jsp?energyterm=kJ/mole&tag=r21&monomerid=50204555&enzyme=Sterol+O-acyltransferase+2&column=ki&startPg=0&Increment=50&submit=Search

> <Ligand HET ID in PDB>


> <PDB ID(s) for Ligand-Target Complex>


> <PubChem CID>
134156681

> <PubChem SID>
375980543

> <ChEBI ID of Ligand>


> <ChEMBL ID of Ligand>
CHEMBL3983935

> <DrugBank ID of Ligand>


> <IUPHAR_GRAC ID of Ligand>


> <KEGG ID of Ligand>


> <ZINC ID of Ligand>


> <Number of Protein Chains in Target (>1 implies a multichain complex)>
1

> <BindingDB Target Chain Sequence>
MEPGGARLRLQRTEGPGGEREHQPCRDGNTETHRAPDLVKWTRHMEAVKAQLLEQAQGQLRELLDRAMWEAIQSYPSQDKPPPLPPPDSLSRTQEPSLGKQKVFIIRKSLLDELMEVQHFRTIYHMFIAGLCVFIISTLAIDFIDEGRLLLEFDLLIFSFGQLPLALVTWVPMFLSTLLAPYQALRLWARPGARGTWTLGAGLGCALLAAHALVLCALPVHVAVEHQLPPASRCVLVFEQVRFLMKSYSFLREAVPGTLRARRGEGIQAPSFSSYLYFLFCPTLIYRETYPRTPYIRWNYVAKNFAQALGCVLYACFILGRLCVPVFANMSREPFSTRALVLSILHATLPGIFMLLLIFFAFLHCWLNAFAEMLRFGDRMFYRDWWNSTSFSNYYRTWNVVVHDWLYSYVYQDGLWLLGAQARGVAMLGVFLVSAVAHEYIFCFVLGFFYPVMLILFLVIGGMLNFMMHDQHTGPAWNVLMWTMLFLGQGIQVSLYCQEWYARRHCPLPQTTFWGLVTPRSWSCHT

> <PDB ID(s) of Target Chain>


> <UniProt (SwissProt) Recommended Name of Target Chain>
Sterol O-acyltransferase 2

> <UniProt (SwissProt) Entry Name of Target Chain>
ACAT-2

> <UniProt (SwissProt) Primary ID of Target Chain>
O77759

> <UniProt (SwissProt) Secondary ID(s) of Target Chain>


> <UniProt (SwissProt) Alternative ID(s) of Target Chain>


> <UniProt (TrEMBL) Submitted Name of Target Chain>


> <UniProt (TrEMBL) Entry Name of Target Chain>


> <UniProt (TrEMBL) Primary ID of Target Chain>


> <UniProt (TrEMBL) Secondary ID(s) of Target Chain>


> <UniProt (TrEMBL) Alternative ID(s) of Target Chain>


$$$$

  SciTegic12221702102D

 27 30  0  0  0  0            999 V2000
    2.9922   -9.9961    0.0000 C   0  0  2  0  0  0
    3.7805   -9.7815    0.0000 C   0  0
    3.9877   -8.9959    0.0000 C   0  0  1  0  0  0
    3.4097   -8.4193    0.0000 C   0  0
    2.6214   -8.6340    0.0000 C   0  0  2  0  0  0
    2.4111   -9.4251    0.0000 O   0  0
    0.7993  -10.2561    0.0000 C   0  0
    0.7981  -11.0757    0.0000 C   0  0
    1.5062  -11.4846    0.0000 C   0  0
    1.5044   -9.8473    0.0000 C   0  0
    2.2130  -10.2525    0.0000 C   0  0
    2.2132  -11.0757    0.0000 C   0  0
    2.9962  -11.3299    0.0000 N   0  0
    3.4799  -10.6637    0.0000 C   0  0
    4.2971  -10.6634    0.0000 O   0  0
    2.0418   -8.0579    0.0000 C   0  0
    1.2531   -8.2717    0.0000 C   0  0
    0.6735   -7.6956    0.0000 C   0  0
    4.7769   -8.7821    0.0000 N   0  0
    5.4708   -9.2110    0.0000 C   0  0
    3.2490  -12.1070    0.0000 C   0  0
    6.1905   -8.8237    0.0000 C   0  0
    6.8821   -9.2552    0.0000 C   0  0
    7.6012   -8.8686    0.0000 C   0  0
    7.6262   -8.0509    0.0000 C   0  0
    6.9260   -7.6213    0.0000 C   0  0
    6.2097   -8.0103    0.0000 C   0  0
  1  2  1  0
  1  6  1  0
  2  3  1  0
  3  4  1  0
  4  5  1  0
  5  6  1  0
  7  8  2  0
  8  9  1  0
  9 12  2  0
 11 10  2  0
 10  7  1  0
 11 12  1  0
 12 13  1  0
 13 14  1  0
 14  1  1  0
  1 11  1  1
 14 15  2  0
  5 16  1  6
 16 17  1  0
 17 18  1  0
  3 19  1  1
 19 20  1  0
 13 21  1  0
 20 22  1  0
 22 23  2  0
 23 24  1  0
 24 25  2  0
 25 26  1  0
 26 27  2  0
 27 22  1  0
M  END
> <From>
www.bindingDB.org

> <BindingDB Reactant_set_id>
50533738

> <Ligand InChI>
InChI=1S/C23H28N2O2/c1-3-9-19-14-18(24-16-17-10-5-4-6-11-17)15-23(27-19)20-12-7-8-13-21(20)25(2)22(23)26/h4-8,10-13,18-19,24H,3,9,14-16H2,1-2H3/t18-,19-,23+/m1/s1

> <Ligand InChI Key>
XUHVBOWTOMUDBL-PWHSHALESA-N

> <BindingDB MonomerID>
50204556

> <BindingDB Ligand Name>
CHEMBL3941429

> <Target Name>
Sterol O-acyltransferase 2

> <Target Source Organism According to Curator or DataSource>


> <Ki (nM)>


> <IC50 (nM)>
>27000

> <Kd (nM)>


> <EC50 (nM)>


> <kon (M-1-s-1)>


> <koff (s-1)>


> <pH>


> <Temp (C)>


> <Curation/DataSource>
ChEMBL

> <Article DOI>
10.1016/j.bmcl.2016.11.008

> <BindingDB Entry DOI>
10.7270/Q2D220KD

> <PMID>
27876317

> <PubChem AID>


> <Patent Number>


> <Authors>
Kobayashi, K; Ohshiro, T; Tomoda, H; Yin, F; Cui, HL; Chouthaiwale, PV; Tanaka, F

> <Institution>
Kitasato University

> <Link to Ligand in BindingDB>
http://www.bindingdb.org/bind/chemsearch/marvin/MolStructure.jsp?monomerid=50204556

> <Link to Target in BindingDB>
http://www.bindingdb.org/jsp/dbsearch/PrimarySearch_ki.jsp?energyterm=kJ/mole&tag=pol&polymerid=50007205&target=Sterol+O-acyltransferase+2&column=ki&startPg=0&Increment=50&submit=Search

> <Link to Ligand-Target Pair in BindingDB>
http://www.bindingdb.org/jsp/dbsearch/PrimarySearch_ki.jsp?energyterm=kJ/mole&tag=r21&monomerid=50204556&enzyme=Sterol+O-acyltransferase+2&column=ki&startPg=0&Increment=50&submit=Search

> <Ligand HET ID in PDB>


> <PDB ID(s) for Ligand-Target Complex>


> <PubChem CID>
134145718

> <PubChem SID>
375980544

> <ChEBI ID of Ligand>


> <ChEMBL ID of Ligand>
CHEMBL3941429

> <DrugBank ID of Ligand>


> <IUPHAR_GRAC ID of Ligand>


> <KEGG ID of Ligand>


> <ZINC ID of Ligand>


> <Number of Protein Chains in Target (>1 implies a multichain complex)>
1

> <BindingDB Target Chain Sequence>
MEPGGARLRLQRTEGPGGEREHQPCRDGNTETHRAPDLVKWTRHMEAVKAQLLEQAQGQLRELLDRAMWEAIQSYPSQDKPPPLPPPDSLSRTQEPSLGKQKVFIIRKSLLDELMEVQHFRTIYHMFIAGLCVFIISTLAIDFIDEGRLLLEFDLLIFSFGQLPLALVTWVPMFLSTLLAPYQALRLWARPGARGTWTLGAGLGCALLAAHALVLCALPVHVAVEHQLPPASRCVLVFEQVRFLMKSYSFLREAVPGTLRARRGEGIQAPSFSSYLYFLFCPTLIYRETYPRTPYIRWNYVAKNFAQALGCVLYACFILGRLCVPVFANMSREPFSTRALVLSILHATLPGIFMLLLIFFAFLHCWLNAFAEMLRFGDRMFYRDWWNSTSFSNYYRTWNVVVHDWLYSYVYQDGLWLLGAQARGVAMLGVFLVSAVAHEYIFCFVLGFFYPVMLILFLVIGGMLNFMMHDQHTGPAWNVLMWTMLFLGQGIQVSLYCQEWYARRHCPLPQTTFWGLVTPRSWSCHT

> <PDB ID(s) of Target Chain>


> <UniProt (SwissProt) Recommended Name of Target Chain>
Sterol O-acyltransferase 2

> <UniProt (SwissProt) Entry Name of Target Chain>
ACAT-2

> <UniProt (SwissProt) Primary ID of Target Chain>
O77759

> <UniProt (SwissProt) Secondary ID(s) of Target Chain>


> <UniProt (SwissProt) Alternative ID(s) of Target Chain>


> <UniProt (TrEMBL) Submitted Name of Target Chain>


> <UniProt (TrEMBL) Entry Name of Target Chain>


> <UniProt (TrEMBL) Primary ID of Target Chain>


> <UniProt (TrEMBL) Secondary ID(s) of Target Chain>


> <UniProt (TrEMBL) Alternative ID(s) of Target Chain>


$$$$

  Mrv0541 11221423472D          

 25 26  0  0  0  0            999 V2000
    2.8167   -3.9000    0.0000 C   0  0  0  0  0  0  0  0  0  0  0  0
    2.1000   -4.3125    0.0000 C   0  0  0  0  0  0  0  0  0  0  0  0
    1.3792   -3.8917    0.0000 C   0  0  0  0  0  0  0  0  0  0  0  0
    2.8167   -3.0667    0.0000 C   0  0  0  0  0  0  0  0  0  0  0  0
    2.1000   -2.6542    0.0000 C   0  0  0  0  0  0  0  0  0  0  0  0
    1.3875   -3.0667    0.0000 C   0  0  0  0  0  0  0  0  0  0  0  0
    3.5292   -4.3125    0.0000 C   0  0  0  0  0  0  0  0  0  0  0  0
    0.6667   -4.3125    0.0000 C   0  0  0  0  0  0  0  0  0  0  0  0
    3.5292   -5.1375    0.0000 O   0  0  0  0  0  0  0  0  0  0  0  0
    0.6667   -2.6542    0.0000 C   0  0  0  0  0  0  0  0  0  0  0  0
    2.0917   -5.1375    0.0000 O   0  0  0  0  0  0  0  0  0  0  0  0
    4.2417   -5.5542    0.0000 C   0  0  0  0  0  0  0  0  0  0  0  0
    4.9542   -4.3167    0.0000 C   0  0  0  0  0  0  0  0  0  0  0  0
    2.1000   -1.8292    0.0000 O   0  0  0  0  0  0  0  0  0  0  0  0
    4.2417   -3.9042    0.0000 C   0  0  0  0  0  0  0  0  0  0  0  0
    5.6750   -3.9042    0.0000 C   0  0  0  0  0  0  0  0  0  0  0  0
    4.2375   -6.3792    0.0000 O   0  0  0  0  0  0  0  0  0  0  0  0
   -0.0458   -3.9000    0.0000 C   0  0  0  0  0  0  0  0  0  0  0  0
   -0.0458   -3.0750    0.0000 C   0  0  0  0  0  0  0  0  0  0  0  0
    0.6750   -5.1375    0.0000 O   0  0  0  0  0  0  0  0  0  0  0  0
    0.6667   -1.8292    0.0000 O   0  0  0  0  0  0  0  0  0  0  0  0
    4.9542   -5.1417    0.0000 C   0  0  0  0  0  0  0  0  0  0  0  0
    6.3875   -4.3167    0.0000 C   0  0  0  0  0  0  0  0  0  0  0  0
    5.6750   -3.0792    0.0000 C   0  0  0  0  0  0  0  0  0  0  0  0
    5.6667   -5.5542    0.0000 C   0  0  0  0  0  0  0  0  0  0  0  0
  2  1  1  0  0  0  0
  3  2  2  0  0  0  0
  4  1  2  0  0  0  0
  5  4  1  0  0  0  0
  6  5  2  0  0  0  0
  7  1  1  0  0  0  0
  8  3  1  0  0  0  0
  7  9  1  0  0  0  0
 10  6  1  0  0  0  0
 11  2  1  0  0  0  0
 12  9  1  0  0  0  0
 15 13  1  4  0  0  0
 14  5  1  0  0  0  0
 15  7  2  0  0  0  0
 16 13  2  0  0  0  0
 17 12  2  0  0  0  0
 18  8  2  0  0  0  0
 19 10  2  0  0  0  0
 20  8  1  0  0  0  0
 21 10  1  0  0  0  0
 22 12  1  0  0  0  0
 23 16  1  0  0  0  0
 24 16  1  0  0  0  0
 25 22  1  0  0  0  0
  3  6  1  0  0  0  0
 18 19  1  0  0  0  0
M  END
> <From>
www.bindingDB.org

> <BindingDB Reactant_set_id>
50367870

> <Ligand InChI>
InChI=1S/C19H20O6/c1-4-16(23)25-15(8-5-10(2)3)11-9-14(22)17-12(20)6-7-13(21)18(17)19(11)24/h5-9,20-22,24H,4H2,1-3H3

> <Ligand InChI Key>
FRMFKSNKRMUJOK-UHFFFAOYSA-N

> <BindingDB MonomerID>
50033725

> <BindingDB Ligand Name>
(R)-1-(5,8-dihydroxy-1,4-dioxo-1,4-dihydronaphthalen-2-yl)-4-methylpent-3-enyl propionate::CHEMBL8951::Propionic acid (R)-1-(5,8-dihydroxy-1,4-dioxo-1,4-dihydro-naphthalen-2-yl)-4-methyl-pent-3-enyl ester

> <Target Name>
Sterol O-acyltransferase 2

> <Target Source Organism According to Curator or DataSource>


> <Ki (nM)>


> <IC50 (nM)>
 28700

> <Kd (nM)>


> <EC50 (nM)>


> <kon (M-1-s-1)>


> <koff (s-1)>


> <pH>


> <Temp (C)>


> <Curation/DataSource>
ChEMBL

> <Article DOI>
10.1016/j.bmcl.2006.11.024

> <BindingDB Entry DOI>
10.7270/Q2H70FFW

> <PMID>
17157006

> <PubChem AID>


> <Patent Number>


> <Authors>
An, S; Park, YD; Paik, YK; Jeong, TS; Lee, WS

> <Institution>
National Research Laboratory of Lipid Metabolism and Atherosclerosis

> <Link to Ligand in BindingDB>
http://www.bindingdb.org/bind/chemsearch/marvin/MolStructure.jsp?monomerid=50033725

> <Link to Target in BindingDB>
http://www.bindingdb.org/jsp/dbsearch/PrimarySearch_ki.jsp?energyterm=kJ/mole&tag=pol&polymerid=7773&target=Sterol+O-acyltransferase+2&column=ki&startPg=0&Increment=50&submit=Search

> <Link to Ligand-Target Pair in BindingDB>
http://www.bindingdb.org/jsp/dbsearch/PrimarySearch_ki.jsp?energyterm=kJ/mole&tag=r21&monomerid=50033725&enzyme=Sterol+O-acyltransferase+2&column=ki&startPg=0&Increment=50&submit=Search

> <Ligand HET ID in PDB>


> <PDB ID(s) for Ligand-Target Complex>


> <PubChem CID>
91929162

> <PubChem SID>
103941977

> <ChEBI ID of Ligand>


> <ChEMBL ID of Ligand>
CHEMBL8951

> <DrugBank ID of Ligand>


> <IUPHAR_GRAC ID of Ligand>


> <KEGG ID of Ligand>


> <ZINC ID of Ligand>
ZINC05768387

> <Number of Protein Chains in Target (>1 implies a multichain complex)>
1

> <BindingDB Target Chain Sequence>
MEPGGARLRLQRTEGLGGERERQPCGDGNTETHRAPDLVQWTRHMEAVKAQLLEQAQGQLRELLDRAMREAIQSYPSQDKPLPPPPPGSLSRTQEPSLGKQKVFIIRKSLLDELMEVQHFRTIYHMFIAGLCVFIISTLAIDFIDEGRLLLEFDLLIFSFGQLPLALVTWVPMFLSTLLAPYQALRLWARGTWTQATGLGCALLAAHAVVLCALPVHVAVEHQLPPASRCVLVFEQVRFLMKSYSFLREAVPGTLRARRGEGIQAPSFSSYLYFLFCPTLIYRETYPRTPYVRWNYVAKNFAQALGCVLYACFILGRLCVPVFANMSREPFSTRALVLSILHATLPGIFMLLLIFFAFLHCWLNAFAEMLRFGDRMFYRDWWNSTSFSNYYRTWNVVVHDWLYSYVYQDGLRLLGARARGVAMLGVFLVSAVAHEYIFCFVLGFFYPVMLILFLVIGGMLNFMMHDQRTGPAWNVLMWTMLFLGQGIQVSLYCQEWYARRHCPLPQATFWGLVTPRSWSCHT

> <PDB ID(s) of Target Chain>


> <UniProt (SwissProt) Recommended Name of Target Chain>
Sterol O-acyltransferase 2

> <UniProt (SwissProt) Entry Name of Target Chain>
ACAT-2

> <UniProt (SwissProt) Primary ID of Target Chain>
O75908

> <UniProt (SwissProt) Secondary ID(s) of Target Chain>
F5H7W4 I6L9H9 Q4VB99 Q4VBA1 Q96TD4 Q9UNR2

> <UniProt (SwissProt) Alternative ID(s) of Target Chain>


> <UniProt (TrEMBL) Submitted Name of Target Chain>


> <UniProt (TrEMBL) Entry Name of Target Chain>


> <UniProt (TrEMBL) Primary ID of Target Chain>


> <UniProt (TrEMBL) Secondary ID(s) of Target Chain>


> <UniProt (TrEMBL) Alternative ID(s) of Target Chain>


$$$$

  Mrv0541 11221400292D          

 29 32  0  0  0  0            999 V2000
   -3.9878    1.2122    0.0000 C   0  0  0  0  0  0  0  0  0  0  0  0
   -3.2762    1.6249    0.0000 C   0  0  0  0  0  0  0  0  0  0  0  0
   -2.5610    1.2159    0.0000 C   0  0  0  0  0  0  0  0  0  0  0  0
   -2.5622    0.3830    0.0000 C   0  0  0  0  0  0  0  0  0  0  0  0
   -1.8455   -0.0322    0.0000 O   0  0  0  0  0  0  0  0  0  0  0  0
   -1.8431    1.6336    0.0000 C   0  0  0  0  0  0  0  0  0  0  0  0
   -1.1218    1.2138    0.0000 C   0  0  0  0  0  0  0  0  0  0  0  0
   -1.1231    0.3851    0.0000 C   0  0  0  0  0  0  0  0  0  0  0  0
   -0.4072   -0.0286    0.0000 C   0  0  0  0  0  0  0  0  0  0  0  0
    0.3104    0.3853    0.0000 C   0  0  0  0  0  0  0  0  0  0  0  0
    0.3077    1.2172    0.0000 C   0  0  0  0  0  0  0  0  0  0  0  0
   -0.4088    1.6271    0.0000 C   0  0  0  0  0  0  0  0  0  0  0  0
   -3.2744   -0.0277    0.0000 C   0  0  0  0  0  0  0  0  0  0  0  0
   -3.9921    0.3836    0.0000 C   0  0  0  0  0  0  0  0  0  0  0  0
   -4.7033   -0.0301    0.0000 O   0  0  0  0  0  0  0  0  0  0  0  0
   -4.7029   -0.8567    0.0000 C   0  0  0  0  0  0  0  0  0  0  0  0
   -3.2677   -0.8527    0.0000 C   0  0  0  0  0  0  0  0  0  0  0  0
   -4.7112   -1.6787    0.0000 C   0  0  0  0  0  0  0  0  0  0  0  0
   -5.4235   -0.4416    0.0000 C   0  0  0  0  0  0  0  0  0  0  0  0
   -0.4111    2.4518    0.0000 O   0  0  0  0  0  0  0  0  0  0  0  0
    1.0253   -0.0261    0.0000 O   0  0  0  0  0  0  0  0  0  0  0  0
   -0.4076   -0.8534    0.0000 C   0  0  0  0  0  0  0  0  0  0  0  0
   -1.1220   -1.2655    0.0000 C   0  0  0  0  0  0  0  0  0  0  0  0
   -1.1223   -2.0902    0.0000 C   0  0  0  0  0  0  0  0  0  0  0  0
   -0.1957   -1.6453    0.0000 C   0  0  0  0  0  0  0  0  0  0  0  0
    0.3874   -0.6331    0.0000 C   0  0  0  0  0  0  0  0  0  0  0  0
   -1.8431    2.4583    0.0000 O   0  0  0  0  0  0  0  0  0  0  0  0
   -4.7014    1.6258    0.0000 O   0  0  0  0  0  0  0  0  0  0  0  0
   -3.9787   -1.2708    0.0000 C   0  0  0  0  0  0  0  0  0  0  0  0
  3  6  1  0  0  0  0
  4  5  1  0  0  0  0
  5  8  1  0  0  0  0
  7  6  1  0  0  0  0
  2  1  1  0  0  0  0
 13 17  1  0  0  0  0
 14 15  1  0  0  0  0
 15 16  1  0  0  0  0
 16 29  1  0  0  0  0
  3  4  1  0  0  0  0
 16 18  1  0  0  0  0
  7  8  1  0  0  0  0
 16 19  1  0  0  0  0
  1 14  2  0  0  0  0
 12 20  1  0  0  0  0
  8  9  2  0  0  0  0
 10 21  1  0  0  0  0
 13  4  2  0  0  0  0
  9 22  1  0  0  0  0
  9 10  1  0  0  0  0
 22 23  1  0  0  0  0
 23 24  2  0  0  0  0
 10 11  2  0  0  0  0
 22 25  1  0  0  0  0
  3  2  2  0  0  0  0
 22 26  1  0  0  0  0
 11 12  1  0  0  0  0
  6 27  2  0  0  0  0
 12  7  2  0  0  0  0
  1 28  1  0  0  0  0
 13 14  1  0  0  0  0
 17 29  2  0  0  0  0
M  END
> <From>
www.bindingDB.org

> <BindingDB Reactant_set_id>
50357585

> <Ligand InChI>
InChI=1S/C23H22O6/c1-6-22(2,3)17-14(25)10-13(24)16-18(27)12-9-15(26)20-11(19(12)28-21(16)17)7-8-23(4,5)29-20/h6-10,24-26H,1H2,2-5H3

> <Ligand InChI Key>
VDIZUJPZYMJMRS-UHFFFAOYSA-N

> <BindingDB MonomerID>
50175015

> <BindingDB Ligand Name>
5,8,10-trihydroxy-3,3-dimethyl-11-(2-methylbut-3-en-2-yl)pyrano[2,3-c]xanthen-7(3H)-one::CHEMBL440392

> <Target Name>
Sterol O-acyltransferase 2

> <Target Source Organism According to Curator or DataSource>


> <Ki (nM)>


> <IC50 (nM)>
 28800

> <Kd (nM)>


> <EC50 (nM)>


> <kon (M-1-s-1)>


> <koff (s-1)>


> <pH>


> <Temp (C)>


> <Curation/DataSource>
ChEMBL

> <Article DOI>
10.1016/j.bmcl.2006.08.032

> <BindingDB Entry DOI>
10.7270/Q2PV6K0R

> <PMID>
16919944

> <PubChem AID>


> <Patent Number>


> <Authors>
Park, KH; Park, YD; Han, JM; Im, KR; Lee, BW; Jeong, IY; Jeong, TS; Lee, WS

> <Institution>
National Research Laboratory of Lipid Metabolism and Atherosclerosis

> <Link to Ligand in BindingDB>
http://www.bindingdb.org/bind/chemsearch/marvin/MolStructure.jsp?monomerid=50175015

> <Link to Target in BindingDB>
http://www.bindingdb.org/jsp/dbsearch/PrimarySearch_ki.jsp?energyterm=kJ/mole&tag=pol&polymerid=7773&target=Sterol+O-acyltransferase+2&column=ki&startPg=0&Increment=50&submit=Search

> <Link to Ligand-Target Pair in BindingDB>
http://www.bindingdb.org/jsp/dbsearch/PrimarySearch_ki.jsp?energyterm=kJ/mole&tag=r21&monomerid=50175015&enzyme=Sterol+O-acyltransferase+2&column=ki&startPg=0&Increment=50&submit=Search

> <Ligand HET ID in PDB>


> <PDB ID(s) for Ligand-Target Complex>


> <PubChem CID>
44405880

> <PubChem SID>
104060756

> <ChEBI ID of Ligand>


> <ChEMBL ID of Ligand>
CHEMBL440392

> <DrugBank ID of Ligand>


> <IUPHAR_GRAC ID of Ligand>


> <KEGG ID of Ligand>


> <ZINC ID of Ligand>
ZINC15121027

> <Number of Protein Chains in Target (>1 implies a multichain complex)>
1

> <BindingDB Target Chain Sequence>
MEPGGARLRLQRTEGLGGERERQPCGDGNTETHRAPDLVQWTRHMEAVKAQLLEQAQGQLRELLDRAMREAIQSYPSQDKPLPPPPPGSLSRTQEPSLGKQKVFIIRKSLLDELMEVQHFRTIYHMFIAGLCVFIISTLAIDFIDEGRLLLEFDLLIFSFGQLPLALVTWVPMFLSTLLAPYQALRLWARGTWTQATGLGCALLAAHAVVLCALPVHVAVEHQLPPASRCVLVFEQVRFLMKSYSFLREAVPGTLRARRGEGIQAPSFSSYLYFLFCPTLIYRETYPRTPYVRWNYVAKNFAQALGCVLYACFILGRLCVPVFANMSREPFSTRALVLSILHATLPGIFMLLLIFFAFLHCWLNAFAEMLRFGDRMFYRDWWNSTSFSNYYRTWNVVVHDWLYSYVYQDGLRLLGARARGVAMLGVFLVSAVAHEYIFCFVLGFFYPVMLILFLVIGGMLNFMMHDQRTGPAWNVLMWTMLFLGQGIQVSLYCQEWYARRHCPLPQATFWGLVTPRSWSCHT

> <PDB ID(s) of Target Chain>


> <UniProt (SwissProt) Recommended Name of Target Chain>
Sterol O-acyltransferase 2

> <UniProt (SwissProt) Entry Name of Target Chain>
ACAT-2

> <UniProt (SwissProt) Primary ID of Target Chain>
O75908

> <UniProt (SwissProt) Secondary ID(s) of Target Chain>
F5H7W4 I6L9H9 Q4VB99 Q4VBA1 Q96TD4 Q9UNR2

> <UniProt (SwissProt) Alternative ID(s) of Target Chain>


> <UniProt (TrEMBL) Submitted Name of Target Chain>


> <UniProt (TrEMBL) Entry Name of Target Chain>


> <UniProt (TrEMBL) Primary ID of Target Chain>


> <UniProt (TrEMBL) Secondary ID(s) of Target Chain>


> <UniProt (TrEMBL) Alternative ID(s) of Target Chain>


$$$$

     RDKit          2D

 55 57  0  0  0  0  0  0  0  0999 V2000
    7.3300  -10.9784    0.0000 N   0  0  0  0  0  0  0  0  0  0  0  0
    8.0377  -10.5698    0.0000 C   0  0  0  0  0  0  0  0  0  0  0  0
    6.6222  -10.5698    0.0000 C   0  0  0  0  0  0  0  0  0  0  0  0
    5.9145  -10.9784    0.0000 C   0  0  0  0  0  0  0  0  0  0  0  0
    6.6222   -9.7526    0.0000 O   0  0  0  0  0  0  0  0  0  0  0  0
    5.2068  -10.5698    0.0000 C   0  0  0  0  0  0  0  0  0  0  0  0
    4.4991  -10.9784    0.0000 C   0  0  0  0  0  0  0  0  0  0  0  0
    8.7454  -10.9784    0.0000 C   0  0  0  0  0  0  0  0  0  0  0  0
    8.0377   -9.7526    0.0000 C   0  0  0  0  0  0  0  0  0  0  0  0
    8.7454   -9.3440    0.0000 C   0  0  0  0  0  0  0  0  0  0  0  0
    7.3300   -9.3440    0.0000 C   0  0  0  0  0  0  0  0  0  0  0  0
    8.7454  -11.7956    0.0000 O   0  0  0  0  0  0  0  0  0  0  0  0
    9.4531  -10.5698    0.0000 N   0  0  0  0  0  0  0  0  0  0  0  0
   10.1997  -10.8973    0.0000 C   0  0  0  0  0  0  0  0  0  0  0  0
   10.7465  -10.2900    0.0000 C   0  0  0  0  0  0  0  0  0  0  0  0
   10.3379   -9.5822    0.0000 C   0  0  0  0  0  0  0  0  0  0  0  0
    9.5386   -9.7522    0.0000 C   0  0  0  0  0  0  0  0  0  0  0  0
   10.1943  -11.7131    0.0000 C   0  0  0  0  0  0  0  0  0  0  0  0
    9.4838  -12.1169    0.0000 O   0  0  0  0  0  0  0  0  0  0  0  0
   10.8992  -12.1264    0.0000 N   0  0  0  0  0  0  0  0  0  0  0  0
   10.8938  -12.9435    0.0000 C   0  0  0  0  0  0  0  0  0  0  0  0
   11.6096  -11.7225    0.0000 C   0  0  0  0  0  0  0  0  0  0  0  0
   12.3146  -12.1358    0.0000 C   0  0  0  0  0  0  0  0  0  0  0  0
   11.6151  -10.9053    0.0000 C   0  0  0  0  0  0  0  0  0  0  0  0
   12.3255  -10.5015    0.0000 C   0  0  0  0  0  0  0  0  0  0  0  0
   13.0277  -10.9181    0.0000 C   0  0  0  0  0  0  0  0  0  0  0  0
   13.7376  -10.5149    0.0000 C   0  0  0  0  0  0  0  0  0  0  0  0
   13.7435   -9.6969    0.0000 C   0  0  0  0  0  0  0  0  0  0  0  0
   13.0335   -9.2837    0.0000 C   0  0  0  0  0  0  0  0  0  0  0  0
   12.3265   -9.6893    0.0000 C   0  0  0  0  0  0  0  0  0  0  0  0
   12.3092  -12.9530    0.0000 N   0  0  0  0  0  0  0  0  0  0  0  0
   13.0250  -11.7319    0.0000 O   0  0  0  0  0  0  0  0  0  0  0  0
   13.0141  -13.3663    0.0000 C   0  0  0  0  0  0  0  0  0  0  0  0
   13.0087  -14.1834    0.0000 C   0  0  0  0  0  0  0  0  0  0  0  0
   13.7246  -12.9624    0.0000 C   0  0  0  0  0  0  0  0  0  0  0  0
   14.4295  -13.3757    0.0000 N   0  0  0  0  0  0  0  0  0  0  0  0
   13.7300  -12.1452    0.0000 O   0  0  0  0  0  0  0  0  0  0  0  0
   15.1399  -12.9718    0.0000 C   0  0  0  0  0  0  0  0  0  0  0  0
   15.8449  -13.3851    0.0000 C   0  0  0  0  0  0  0  0  0  0  0  0
   15.1454  -12.1546    0.0000 C   0  0  0  0  0  0  0  0  0  0  0  0
   15.8558  -11.7508    0.0000 C   0  0  0  0  0  0  0  0  0  0  0  0
   14.4404  -11.7413    0.0000 C   0  0  0  0  0  0  0  0  0  0  0  0
   15.8395  -14.2023    0.0000 O   0  0  0  0  0  0  0  0  0  0  0  0
   16.5553  -12.9812    0.0000 N   0  0  0  0  0  0  0  0  0  0  0  0
   17.2603  -13.3945    0.0000 C   0  0  0  0  0  0  0  0  0  0  0  0
   16.5608  -12.1641    0.0000 C   0  0  0  0  0  0  0  0  0  0  0  0
   17.9707  -12.9907    0.0000 C   0  0  0  0  0  0  0  0  0  0  0  0
   18.7153  -13.3254    0.0000 N   0  0  0  0  0  0  0  0  0  0  0  0
   19.2661  -12.7217    0.0000 C   0  0  0  0  0  0  0  0  0  0  0  0
   18.8622  -12.0113    0.0000 C   0  0  0  0  0  0  0  0  0  0  0  0
   18.0618  -12.1760    0.0000 S   0  0  0  0  0  0  0  0  0  0  0  0
   12.2983  -14.5873    0.0000 C   0  0  0  0  0  0  0  0  0  0  0  0
   12.2928  -15.4045    0.0000 C   0  0  0  0  0  0  0  0  0  0  0  0
   11.5933  -14.1740    0.0000 C   0  0  0  0  0  0  0  0  0  0  0  0
   14.4241  -14.1929    0.0000 C   0  0  0  0  0  0  0  0  0  0  0  0
  1  2  1  0
  1  3  1  0
  3  4  1  0
  3  5  2  0
  4  6  1  0
  6  7  1  0
  2  8  1  0
  2  9  1  1
  9 10  1  0
  9 11  1  0
  8 12  2  0
  8 13  1  0
 13 14  1  0
 14 15  1  0
 15 16  1  0
 16 17  1  0
 17 13  1  0
 14 18  1  1
 18 19  2  0
 18 20  1  0
 20 21  1  0
 20 22  1  0
 22 23  1  0
 22 24  1  1
 24 25  1  0
 25 26  2  0
 26 27  1  0
 27 28  2  0
 28 29  1  0
 29 30  2  0
 30 25  1  0
 23 31  1  0
 23 32  2  0
 31 33  1  0
 33 34  1  6
 33 35  1  0
 35 36  1  0
 35 37  2  0
 36 38  1  0
 38 39  1  0
 38 40  1  1
 40 41  1  0
 40 42  1  0
 39 43  2  0
 39 44  1  0
 44 45  1  0
 44 46  1  0
 45 47  1  0
 47 48  2  0
 48 49  1  0
 49 50  2  0
 50 51  1  0
 51 47  1  0
 34 52  1  0
 52 53  1  0
 52 54  1  0
 36 55  1  0
M  END
> <From>
www.bindingDB.org

> <BindingDB Reactant_set_id>
51105763

> <Ligand InChI>
InChI=1S/C41H63N7O6S/c1-11-16-33(49)44-35(27(4)5)40(53)48-21-15-19-31(48)39(52)46(9)32(24-29-17-13-12-14-18-29)37(50)43-30(23-26(2)3)38(51)47(10)36(28(6)7)41(54)45(8)25-34-42-20-22-55-34/h12-14,17-18,20,22,26-28,30-32,35-36H,11,15-16,19,21,23-25H2,1-10H3,(H,43,50)(H,44,49)/t30-,31-,32-,35-,36-/m0/s1

> <Ligand InChI Key>
YUSHRJINPQIDME-XGQIDOAOSA-N

> <BindingDB MonomerID>
50450892

> <BindingDB Ligand Name>
CHEMBL4207917

> <Target Name>
Sterol O-acyltransferase 2

> <Target Source Organism According to Curator or DataSource>


> <Ki (nM)>


> <IC50 (nM)>
>32000

> <Kd (nM)>


> <EC50 (nM)>


> <kon (M-1-s-1)>


> <koff (s-1)>


> <pH>


> <Temp (C)>


> <Curation/DataSource>
ChEMBL

> <Article DOI>
10.1021/acs.jnatprod.7b00137

> <BindingDB Entry DOI>
10.7270/Q2251MS3

> <PMID>
28294609

> <PubChem AID>


> <Patent Number>


> <Authors>
Iwasaki, A; Tadenuma, T; Sumimoto, S; Ohshiro, T; Ozaki, K; Kobayashi, K; Teruya, T; Tomoda, H; Suenaga, K

> <Institution>
Keio University

> <Link to Ligand in BindingDB>
http://www.bindingdb.org/bind/chemsearch/marvin/MolStructure.jsp?monomerid=50450892

> <Link to Target in BindingDB>
http://www.bindingdb.org/jsp/dbsearch/PrimarySearch_ki.jsp?energyterm=kJ/mole&tag=pol&polymerid=50007205&target=Sterol+O-acyltransferase+2&column=ki&startPg=0&Increment=50&submit=Search

> <Link to Ligand-Target Pair in BindingDB>
http://www.bindingdb.org/jsp/dbsearch/PrimarySearch_ki.jsp?energyterm=kJ/mole&tag=r21&monomerid=50450892&enzyme=Sterol+O-acyltransferase+2&column=ki&startPg=0&Increment=50&submit=Search

> <Ligand HET ID in PDB>


> <PDB ID(s) for Ligand-Target Complex>


> <PubChem CID>
139589701

> <PubChem SID>
433920234

> <ChEBI ID of Ligand>


> <ChEMBL ID of Ligand>


> <DrugBank ID of Ligand>


> <IUPHAR_GRAC ID of Ligand>


> <KEGG ID of Ligand>


> <ZINC ID of Ligand>


> <Number of Protein Chains in Target (>1 implies a multichain complex)>
1

> <BindingDB Target Chain Sequence>
MEPGGARLRLQRTEGPGGEREHQPCRDGNTETHRAPDLVKWTRHMEAVKAQLLEQAQGQLRELLDRAMWEAIQSYPSQDKPPPLPPPDSLSRTQEPSLGKQKVFIIRKSLLDELMEVQHFRTIYHMFIAGLCVFIISTLAIDFIDEGRLLLEFDLLIFSFGQLPLALVTWVPMFLSTLLAPYQALRLWARPGARGTWTLGAGLGCALLAAHALVLCALPVHVAVEHQLPPASRCVLVFEQVRFLMKSYSFLREAVPGTLRARRGEGIQAPSFSSYLYFLFCPTLIYRETYPRTPYIRWNYVAKNFAQALGCVLYACFILGRLCVPVFANMSREPFSTRALVLSILHATLPGIFMLLLIFFAFLHCWLNAFAEMLRFGDRMFYRDWWNSTSFSNYYRTWNVVVHDWLYSYVYQDGLWLLGAQARGVAMLGVFLVSAVAHEYIFCFVLGFFYPVMLILFLVIGGMLNFMMHDQHTGPAWNVLMWTMLFLGQGIQVSLYCQEWYARRHCPLPQTTFWGLVTPRSWSCHT

> <PDB ID(s) of Target Chain>


> <UniProt (SwissProt) Recommended Name of Target Chain>
Sterol O-acyltransferase 2

> <UniProt (SwissProt) Entry Name of Target Chain>
ACAT-2

> <UniProt (SwissProt) Primary ID of Target Chain>
O77759

> <UniProt (SwissProt) Secondary ID(s) of Target Chain>


> <UniProt (SwissProt) Alternative ID(s) of Target Chain>


> <UniProt (TrEMBL) Submitted Name of Target Chain>


> <UniProt (TrEMBL) Entry Name of Target Chain>


> <UniProt (TrEMBL) Primary ID of Target Chain>


> <UniProt (TrEMBL) Secondary ID(s) of Target Chain>


> <UniProt (TrEMBL) Alternative ID(s) of Target Chain>


$$$$

  SciTegic12211719402D

 28 31  0  0  0  0            999 V2000
   18.1392  -10.3800    0.0000 C   0  0  2  0  0  0
   18.9275  -10.1654    0.0000 C   0  0
   19.1346   -9.3797    0.0000 C   0  0  1  0  0  0
   18.5566   -8.8032    0.0000 C   0  0
   17.7683   -9.0178    0.0000 C   0  0  2  0  0  0
   17.5580   -9.8090    0.0000 O   0  0
   15.9462  -10.6400    0.0000 C   0  0
   15.9450  -11.4595    0.0000 C   0  0
   16.6531  -11.8685    0.0000 C   0  0
   16.6513  -10.2311    0.0000 C   0  0
   17.3599  -10.6364    0.0000 C   0  0
   17.3602  -11.4595    0.0000 C   0  0
   18.1432  -11.7137    0.0000 N   0  0
   18.6269  -11.0476    0.0000 C   0  0
   19.4441  -11.0473    0.0000 O   0  0
   17.1887   -8.4417    0.0000 C   0  0
   16.4000   -8.6556    0.0000 C   0  0
   15.8205   -8.0795    0.0000 C   0  0
   19.9238   -9.1660    0.0000 N   0  0
   20.6178   -9.5948    0.0000 C   0  0
   18.3959  -12.4908    0.0000 C   0  0
   21.3374   -9.2076    0.0000 C   0  0
   22.0291   -9.6390    0.0000 C   0  0
   22.7482   -9.2524    0.0000 C   0  0
   22.7731   -8.4348    0.0000 C   0  0
   22.0729   -8.0052    0.0000 C   0  0
   21.3567   -8.3942    0.0000 C   0  0
   16.6489   -9.4139    0.0000 Br  0  0
  1  2  1  0
  1  6  1  0
  2  3  1  0
  3  4  1  0
  4  5  1  0
  5  6  1  0
  7  8  2  0
  8  9  1  0
  9 12  2  0
 11 10  2  0
 10  7  1  0
 11 12  1  0
 12 13  1  0
 13 14  1  0
 14  1  1  0
  1 11  1  1
 14 15  2  0
  5 16  1  6
 16 17  1  0
 17 18  1  0
  3 19  1  1
 19 20  1  0
 13 21  1  0
 20 22  1  0
 22 23  2  0
 23 24  1  0
 24 25  2  0
 25 26  1  0
 26 27  2  0
 27 22  1  0
 10 28  1  0
M  END
> <From>
www.bindingDB.org

> <BindingDB Reactant_set_id>
50533666

> <Ligand InChI>
InChI=1S/C23H27BrN2O2/c1-3-8-18-13-17(25-15-16-9-5-4-6-10-16)14-23(28-18)21-19(24)11-7-12-20(21)26(2)22(23)27/h4-7,9-12,17-18,25H,3,8,13-15H2,1-2H3/t17-,18-,23+/m1/s1

> <Ligand InChI Key>
AQUXMTHQBTYXOM-PNCHPQGNSA-N

> <BindingDB MonomerID>
50204548

> <BindingDB Ligand Name>
CHEMBL3932453

> <Target Name>
Sterol O-acyltransferase 2

> <Target Source Organism According to Curator or DataSource>


> <Ki (nM)>


> <IC50 (nM)>
>33000

> <Kd (nM)>


> <EC50 (nM)>


> <kon (M-1-s-1)>


> <koff (s-1)>


> <pH>


> <Temp (C)>


> <Curation/DataSource>
ChEMBL

> <Article DOI>
10.1016/j.bmcl.2016.11.008

> <BindingDB Entry DOI>
10.7270/Q2D220KD

> <PMID>
27876317

> <PubChem AID>


> <Patent Number>


> <Authors>
Kobayashi, K; Ohshiro, T; Tomoda, H; Yin, F; Cui, HL; Chouthaiwale, PV; Tanaka, F

> <Institution>
Kitasato University

> <Link to Ligand in BindingDB>
http://www.bindingdb.org/bind/chemsearch/marvin/MolStructure.jsp?monomerid=50204548

> <Link to Target in BindingDB>
http://www.bindingdb.org/jsp/dbsearch/PrimarySearch_ki.jsp?energyterm=kJ/mole&tag=pol&polymerid=50007205&target=Sterol+O-acyltransferase+2&column=ki&startPg=0&Increment=50&submit=Search

> <Link to Ligand-Target Pair in BindingDB>
http://www.bindingdb.org/jsp/dbsearch/PrimarySearch_ki.jsp?energyterm=kJ/mole&tag=r21&monomerid=50204548&enzyme=Sterol+O-acyltransferase+2&column=ki&startPg=0&Increment=50&submit=Search

> <Ligand HET ID in PDB>


> <PDB ID(s) for Ligand-Target Complex>


> <PubChem CID>
134138983

> <PubChem SID>
375980538

> <ChEBI ID of Ligand>


> <ChEMBL ID of Ligand>
CHEMBL3932453

> <DrugBank ID of Ligand>


> <IUPHAR_GRAC ID of Ligand>


> <KEGG ID of Ligand>


> <ZINC ID of Ligand>


> <Number of Protein Chains in Target (>1 implies a multichain complex)>
1

> <BindingDB Target Chain Sequence>
MEPGGARLRLQRTEGPGGEREHQPCRDGNTETHRAPDLVKWTRHMEAVKAQLLEQAQGQLRELLDRAMWEAIQSYPSQDKPPPLPPPDSLSRTQEPSLGKQKVFIIRKSLLDELMEVQHFRTIYHMFIAGLCVFIISTLAIDFIDEGRLLLEFDLLIFSFGQLPLALVTWVPMFLSTLLAPYQALRLWARPGARGTWTLGAGLGCALLAAHALVLCALPVHVAVEHQLPPASRCVLVFEQVRFLMKSYSFLREAVPGTLRARRGEGIQAPSFSSYLYFLFCPTLIYRETYPRTPYIRWNYVAKNFAQALGCVLYACFILGRLCVPVFANMSREPFSTRALVLSILHATLPGIFMLLLIFFAFLHCWLNAFAEMLRFGDRMFYRDWWNSTSFSNYYRTWNVVVHDWLYSYVYQDGLWLLGAQARGVAMLGVFLVSAVAHEYIFCFVLGFFYPVMLILFLVIGGMLNFMMHDQHTGPAWNVLMWTMLFLGQGIQVSLYCQEWYARRHCPLPQTTFWGLVTPRSWSCHT

> <PDB ID(s) of Target Chain>


> <UniProt (SwissProt) Recommended Name of Target Chain>
Sterol O-acyltransferase 2

> <UniProt (SwissProt) Entry Name of Target Chain>
ACAT-2

> <UniProt (SwissProt) Primary ID of Target Chain>
O77759

> <UniProt (SwissProt) Secondary ID(s) of Target Chain>


> <UniProt (SwissProt) Alternative ID(s) of Target Chain>


> <UniProt (TrEMBL) Submitted Name of Target Chain>


> <UniProt (TrEMBL) Entry Name of Target Chain>


> <UniProt (TrEMBL) Primary ID of Target Chain>


> <UniProt (TrEMBL) Secondary ID(s) of Target Chain>


> <UniProt (TrEMBL) Alternative ID(s) of Target Chain>


$$$$
 
     RDKit          2D

 26 25  0  0  0  0  0  0  0  0999 V2000
   14.4093   -3.3685    0.0000 C   0  0  0  0  0  0  0  0  0  0  0  0
   15.1249   -3.7792    0.0000 C   0  0  0  0  0  0  0  0  0  0  0  0
   15.8403   -3.3685    0.0000 C   0  0  0  0  0  0  0  0  0  0  0  0
   13.6939   -3.7792    0.0000 O   0  0  0  0  0  0  0  0  0  0  0  0
   16.5558   -3.7792    0.0000 C   0  0  0  0  0  0  0  0  0  0  0  0
   17.2656   -4.1899    0.0000 C   0  0  0  0  0  0  0  0  0  0  0  0
   17.9791   -4.6006    0.0000 C   0  0  0  0  0  0  0  0  0  0  0  0
   18.6885   -5.0154    0.0000 C   0  0  0  0  0  0  0  0  0  0  0  0
   19.4020   -5.4261    0.0000 C   0  0  0  0  0  0  0  0  0  0  0  0
   20.1180   -5.0163    0.0000 C   0  0  0  0  0  0  0  0  0  0  0  0
   20.8330   -5.4278    0.0000 C   0  0  0  0  0  0  0  0  0  0  0  0
   20.8320   -6.2533    0.0000 C   0  0  0  0  0  0  0  0  0  0  0  0
   21.5470   -6.6690    0.0000 C   0  0  0  0  0  0  0  0  0  0  0  0
   21.5460   -7.4945    0.0000 C   0  0  0  0  0  0  0  0  0  0  0  0
   22.2630   -6.2550    0.0000 O   0  0  0  0  0  0  0  0  0  0  0  0
   22.2640   -5.4295    0.0000 C   0  0  0  0  0  0  0  0  0  0  0  0
   22.9799   -5.0197    0.0000 C   0  0  0  0  0  0  0  0  0  0  0  0
   21.5489   -5.0180    0.0000 O   0  0  0  0  0  0  0  0  0  0  0  0
   22.9809   -4.1941    0.0000 C   0  0  0  0  0  0  0  0  0  0  0  0
   23.6969   -3.7802    0.0000 C   0  0  0  0  0  0  0  0  0  0  0  0
   22.2659   -3.7785    0.0000 C   0  0  0  0  0  0  0  0  0  0  0  0
   22.2611   -7.9061    0.0000 C   0  0  0  0  0  0  0  0  0  0  0  0
   22.9770   -7.4962    0.0000 O   0  0  0  0  0  0  0  0  0  0  0  0
   23.6920   -7.9078    0.0000 C   0  0  0  0  0  0  0  0  0  0  0  0
   24.4038   -7.4980    0.0000 C   0  0  0  0  0  0  0  0  0  0  0  0
   23.6910   -8.7334    0.0000 O   0  0  0  0  0  0  0  0  0  0  0  0
  1  2  1  0
  2  3  2  0
  1  4  1  0
  3  5  1  0
  5  6  3  0
  6  7  1  0
  7  8  3  0
  8  9  1  0
  9 10  2  0
 10 11  1  0
 11 12  2  0
 12 13  1  0
 13 14  1  0
 13 15  1  0
 15 16  1  0
 16 17  1  0
 16 18  2  0
 17 19  2  0
 19 20  1  0
 19 21  1  0
 14 22  1  0
 22 23  1  0
 23 24  1  0
 24 25  1  0
 24 26  2  0
M  END
> <From>
www.bindingDB.org

> <BindingDB Reactant_set_id>
51346964

> <Ligand InChI>
InChI=1S/C21H24O5/c1-18(2)17-21(24)26-20(14-16-25-19(3)23)13-11-9-7-5-4-6-8-10-12-15-22/h7,9-13,17,20,22H,14-16H2,1-3H3/b9-7+,12-10+,13-11+

> <Ligand InChI Key>
CQDVFBMTEZFKKY-JPSRSCNUSA-N

> <BindingDB MonomerID>
50544939

> <BindingDB Ligand Name>
CHEMBL4645000

> <Target Name>
Sterol O-acyltransferase 2

> <Target Source Organism According to Curator or DataSource>


> <Ki (nM)>


> <IC50 (nM)>
 36200

> <Kd (nM)>


> <EC50 (nM)>


> <kon (M-1-s-1)>


> <koff (s-1)>


> <pH>


> <Temp (C)>


> <Curation/DataSource>
ChEMBL

> <Article DOI>


> <BindingDB Entry DOI>
10.7270/Q2G73J95

> <PMID>
32035699

> <PubChem AID>


> <Patent Number>


> <Authors>
Nur, EAA; Ohshiro, T; Kobayashi, K; Wu, J; Wahyudin, E; Zhang, H; Hayashi, F; Kawagishi, H; Tomoda, H

> <Institution>
Kitasato University

> <Link to Ligand in BindingDB>
http://www.bindingdb.org/bind/chemsearch/marvin/MolStructure.jsp?monomerid=50544939

> <Link to Target in BindingDB>
http://www.bindingdb.org/jsp/dbsearch/PrimarySearch_ki.jsp?energyterm=kJ/mole&tag=pol&polymerid=7773&target=Sterol+O-acyltransferase+2&column=ki&startPg=0&Increment=50&submit=Search

> <Link to Ligand-Target Pair in BindingDB>
http://www.bindingdb.org/jsp/dbsearch/PrimarySearch_ki.jsp?energyterm=kJ/mole&tag=r21&monomerid=50544939&enzyme=Sterol+O-acyltransferase+2&column=ki&startPg=0&Increment=50&submit=Search

> <Ligand HET ID in PDB>


> <PDB ID(s) for Ligand-Target Complex>


> <PubChem CID>
14448076

> <PubChem SID>
442146502

> <ChEBI ID of Ligand>


> <ChEMBL ID of Ligand>


> <DrugBank ID of Ligand>


> <IUPHAR_GRAC ID of Ligand>


> <KEGG ID of Ligand>


> <ZINC ID of Ligand>


> <Number of Protein Chains in Target (>1 implies a multichain complex)>
1

> <BindingDB Target Chain Sequence>
MEPGGARLRLQRTEGLGGERERQPCGDGNTETHRAPDLVQWTRHMEAVKAQLLEQAQGQLRELLDRAMREAIQSYPSQDKPLPPPPPGSLSRTQEPSLGKQKVFIIRKSLLDELMEVQHFRTIYHMFIAGLCVFIISTLAIDFIDEGRLLLEFDLLIFSFGQLPLALVTWVPMFLSTLLAPYQALRLWARGTWTQATGLGCALLAAHAVVLCALPVHVAVEHQLPPASRCVLVFEQVRFLMKSYSFLREAVPGTLRARRGEGIQAPSFSSYLYFLFCPTLIYRETYPRTPYVRWNYVAKNFAQALGCVLYACFILGRLCVPVFANMSREPFSTRALVLSILHATLPGIFMLLLIFFAFLHCWLNAFAEMLRFGDRMFYRDWWNSTSFSNYYRTWNVVVHDWLYSYVYQDGLRLLGARARGVAMLGVFLVSAVAHEYIFCFVLGFFYPVMLILFLVIGGMLNFMMHDQRTGPAWNVLMWTMLFLGQGIQVSLYCQEWYARRHCPLPQATFWGLVTPRSWSCHT

> <PDB ID(s) of Target Chain>


> <UniProt (SwissProt) Recommended Name of Target Chain>
Sterol O-acyltransferase 2

> <UniProt (SwissProt) Entry Name of Target Chain>
ACAT-2

> <UniProt (SwissProt) Primary ID of Target Chain>
O75908

> <UniProt (SwissProt) Secondary ID(s) of Target Chain>
F5H7W4 I6L9H9 Q4VB99 Q4VBA1 Q96TD4 Q9UNR2

> <UniProt (SwissProt) Alternative ID(s) of Target Chain>


> <UniProt (TrEMBL) Submitted Name of Target Chain>


> <UniProt (TrEMBL) Entry Name of Target Chain>


> <UniProt (TrEMBL) Primary ID of Target Chain>


> <UniProt (TrEMBL) Secondary ID(s) of Target Chain>


> <UniProt (TrEMBL) Alternative ID(s) of Target Chain>


$$$$

  Mrv0541 11211416102D          

 53 57  0  0  1  0            999 V2000
    1.7479    0.2205    0.0000 O   0  0  0  0  0  0  0  0  0  0  0  0
    2.4137    0.7074    0.0000 C   0  0  1  0  0  0  0  0  0  0  0  0
    1.0779    0.7074    0.0000 C   0  0  1  0  0  0  0  0  0  0  0  0
    2.1599    1.4857    0.0000 C   0  0  1  0  0  0  0  0  0  0  0  0
    1.3359    1.4857    0.0000 C   0  0  1  0  0  0  0  0  0  0  0  0
    3.2003    0.4494    0.0000 C   0  0  0  0  0  0  0  0  0  0  0  0
    0.2996    0.4494    0.0000 C   0  0  0  0  0  0  0  0  0  0  0  0
    6.5961    1.5980    0.0000 C   0  0  0  0  0  0  0  0  0  0  0  0
   -3.1087    1.5938    0.0000 C   0  0  0  0  0  0  0  0  0  0  0  0
   -2.0558   -0.3121    0.0000 O   0  0  0  0  0  0  0  0  0  0  0  0
    5.5474   -0.3121    0.0000 O   0  0  0  0  0  0  0  0  0  0  0  0
    4.7609   -0.0541    0.0000 C   0  0  0  0  0  0  0  0  0  0  0  0
   -1.2692   -0.0541    0.0000 C   0  0  0  0  0  0  0  0  0  0  0  0
    3.3626   -0.3538    0.0000 C   0  0  0  0  0  0  0  0  0  0  0  0
    0.1290   -0.3538    0.0000 C   0  0  0  0  0  0  0  0  0  0  0  0
    7.3827    1.3442    0.0000 C   0  0  0  0  0  0  0  0  0  0  0  0
   -3.8910    1.3317    0.0000 C   0  0  0  0  0  0  0  0  0  0  0  0
   -0.6492   -0.6035    0.0000 C   0  0  0  0  0  0  0  0  0  0  0  0
    4.1491   -0.6035    0.0000 C   0  0  0  0  0  0  0  0  0  0  0  0
    6.1550    0.2455    0.0000 C   0  0  0  0  0  0  0  0  0  0  0  0
   -2.6675    0.2372    0.0000 C   0  0  0  0  0  0  0  0  0  0  0  0
    5.9844    1.0445    0.0000 C   0  0  0  0  0  0  0  0  0  0  0  0
   -2.4969    1.0445    0.0000 C   0  0  0  0  0  0  0  0  0  0  0  0
   -4.5153    1.8810    0.0000 C   0  0  0  0  0  0  0  0  0  0  0  0
    7.9902    1.8935    0.0000 C   0  0  0  0  0  0  0  0  0  0  0  0
    7.8196    2.7050    0.0000 C   0  0  0  0  0  0  0  0  0  0  0  0
   -4.3405    2.6925    0.0000 C   0  0  0  0  0  0  0  0  0  0  0  0
   -0.3121    1.0071    0.0000 C   0  0  0  0  0  0  0  0  0  0  0  0
    3.7995    1.0071    0.0000 C   0  0  0  0  0  0  0  0  0  0  0  0
   -2.9422    2.3971    0.0000 C   0  0  0  0  0  0  0  0  0  0  0  0
    6.4213    2.3971    0.0000 C   0  0  0  0  0  0  0  0  0  0  0  0
    4.5861    0.7574    0.0000 C   0  0  0  0  0  0  0  0  0  0  0  0
   -1.0987    0.7491    0.0000 C   0  0  0  0  0  0  0  0  0  0  0  0
   -3.5581    2.9547    0.0000 C   0  0  0  0  0  0  0  0  0  0  0  0
    7.0289    2.9547    0.0000 C   0  0  0  0  0  0  0  0  0  0  0  0
   -1.7187    1.2984    0.0000 O   0  0  0  0  0  0  0  0  0  0  0  0
    5.1978    1.2984    0.0000 O   0  0  0  0  0  0  0  0  0  0  0  0
    4.3239   -1.4108    0.0000 O   0  0  0  0  0  0  0  0  0  0  0  0
   -0.8198   -1.4150    0.0000 O   0  0  0  0  0  0  0  0  0  0  0  0
    8.7685    1.6438    0.0000 O   0  0  0  0  0  0  0  0  0  0  0  0
   -5.2893    1.6188    0.0000 O   0  0  0  0  0  0  0  0  0  0  0  0
   -4.9647    3.2418    0.0000 O   0  0  0  0  0  0  0  0  0  0  0  0
    8.4314    3.2543    0.0000 O   0  0  0  0  0  0  0  0  0  0  0  0
    0.8490    2.1557    0.0000 C   0  0  0  0  0  0  0  0  0  0  0  0
    2.6385    2.1557    0.0000 C   0  0  0  0  0  0  0  0  0  0  0  0
   -3.4458   -0.0167    0.0000 C   0  0  0  0  0  0  0  0  0  0  0  0
    6.9415   -0.0125    0.0000 C   0  0  0  0  0  0  0  0  0  0  0  0
   -1.6188   -1.6272    0.0000 C   0  0  0  0  0  0  0  0  0  0  0  0
    5.1062   -1.6647    0.0000 C   0  0  0  0  0  0  0  0  0  0  0  0
    9.3802    2.1931    0.0000 C   0  0  0  0  0  0  0  0  0  0  0  0
   -5.4641    0.8115    0.0000 C   0  0  0  0  0  0  0  0  0  0  0  0
    8.2566    4.0575    0.0000 C   0  0  0  0  0  0  0  0  0  0  0  0
   -4.7442    3.9951    0.0000 C   0  0  0  0  0  0  0  0  0  0  0  0
  2  1  1  0  0  0  0
  3  1  1  0  0  0  0
  4  2  1  0  0  0  0
  5  3  1  0  0  0  0
  2  6  1  1  0  0  0
  3  7  1  6  0  0  0
  8 22  1  0  0  0  0
  9 23  1  0  0  0  0
 10 13  1  0  0  0  0
 11 12  1  0  0  0  0
 12 32  1  0  0  0  0
 13 33  1  0  0  0  0
 14  6  2  0  0  0  0
 15  7  2  0  0  0  0
 16  8  2  0  0  0  0
 17  9  2  0  0  0  0
 18 15  1  0  0  0  0
 19 14  1  0  0  0  0
 20 11  1  0  0  0  0
 21 10  1  0  0  0  0
 22 20  1  0  0  0  0
 23 21  1  0  0  0  0
 24 17  1  0  0  0  0
 25 16  1  0  0  0  0
 26 35  1  0  0  0  0
 27 34  1  0  0  0  0
 28  7  1  0  0  0  0
 29  6  1  0  0  0  0
 30  9  1  0  0  0  0
 31  8  1  0  0  0  0
 32 29  2  0  0  0  0
 33 28  2  0  0  0  0
 34 30  2  0  0  0  0
 35 31  2  0  0  0  0
 36 23  1  0  0  0  0
 37 22  1  0  0  0  0
 38 19  1  0  0  0  0
 39 18  1  0  0  0  0
 40 25  1  0  0  0  0
 41 24  1  0  0  0  0
 42 27  1  0  0  0  0
 43 26  1  0  0  0  0
  5 44  1  6  0  0  0
  4 45  1  1  0  0  0
 46 21  1  0  0  0  0
 47 20  1  0  0  0  0
 48 39  1  0  0  0  0
 49 38  1  0  0  0  0
 50 40  1  0  0  0  0
 51 41  1  0  0  0  0
 52 43  1  0  0  0  0
 53 42  1  0  0  0  0
  4  5  1  0  0  0  0
 13 18  2  0  0  0  0
 12 19  2  0  0  0  0
 27 24  2  0  0  0  0
 25 26  2  0  0  0  0
M  END
> <From>
www.bindingDB.org

> <BindingDB Reactant_set_id>
50270324

> <Ligand InChI>
InChI=1S/C42H52O11/c1-23-24(2)42(30-14-18-34(38(22-30)50-10)52-26(4)40(44)28-12-16-32(46-6)36(20-28)48-8)53-41(23)29-13-17-33(37(21-29)49-9)51-25(3)39(43)27-11-15-31(45-5)35(19-27)47-7/h11-26,39-44H,1-10H3/t23-,24-,25?,26?,39?,40?,41+,42+/m1/s1

> <Ligand InChI Key>
ZGXXNVOBEIRACL-JAWLWFRMSA-N

> <BindingDB MonomerID>
50147176

> <BindingDB Ligand Name>
1-(3,4-Dimethoxy-phenyl)-2-[4-((2S,3R,4R,5S)-5-{4-[2-(3,4-dimethoxy-phenyl)-2-hydroxy-1-methyl-ethoxy]-3-methoxy-phenyl}-3,4-dimethyl-tetrahydro-furan-2-yl)-2-methoxy-phenoxy]-propan-1-ol::CHEMBL316331

> <Target Name>
Sterol O-acyltransferase 2

> <Target Source Organism According to Curator or DataSource>


> <Ki (nM)>


> <IC50 (nM)>
 39000

> <Kd (nM)>


> <EC50 (nM)>


> <kon (M-1-s-1)>


> <koff (s-1)>


> <pH>


> <Temp (C)>


> <Curation/DataSource>
ChEMBL

> <Article DOI>
10.1016/j.bmcl.2004.04.023

> <BindingDB Entry DOI>
10.7270/Q2X929Q0

> <PMID>
15149654

> <PubChem AID>


> <Patent Number>


> <Authors>
Lee, WS; Lee, DW; Baek, YI; An, S; An, SJ; Cho, KH; Choi, YK; Kim, HC; Park, HY; Bae, KH; Jeong, TS

> <Institution>
Korea Research Institute of Bioscience and Biotechnology

> <Link to Ligand in BindingDB>
http://www.bindingdb.org/bind/chemsearch/marvin/MolStructure.jsp?monomerid=50147176

> <Link to Target in BindingDB>
http://www.bindingdb.org/jsp/dbsearch/PrimarySearch_ki.jsp?energyterm=kJ/mole&tag=pol&polymerid=7773&target=Sterol+O-acyltransferase+2&column=ki&startPg=0&Increment=50&submit=Search

> <Link to Ligand-Target Pair in BindingDB>
http://www.bindingdb.org/jsp/dbsearch/PrimarySearch_ki.jsp?energyterm=kJ/mole&tag=r21&monomerid=50147176&enzyme=Sterol+O-acyltransferase+2&column=ki&startPg=0&Increment=50&submit=Search

> <Ligand HET ID in PDB>


> <PDB ID(s) for Ligand-Target Complex>


> <PubChem CID>
44336126

> <PubChem SID>
104035697

> <ChEBI ID of Ligand>


> <ChEMBL ID of Ligand>
CHEMBL316331

> <DrugBank ID of Ligand>


> <IUPHAR_GRAC ID of Ligand>


> <KEGG ID of Ligand>


> <ZINC ID of Ligand>
ZINC49683172

> <Number of Protein Chains in Target (>1 implies a multichain complex)>
1

> <BindingDB Target Chain Sequence>
MEPGGARLRLQRTEGLGGERERQPCGDGNTETHRAPDLVQWTRHMEAVKAQLLEQAQGQLRELLDRAMREAIQSYPSQDKPLPPPPPGSLSRTQEPSLGKQKVFIIRKSLLDELMEVQHFRTIYHMFIAGLCVFIISTLAIDFIDEGRLLLEFDLLIFSFGQLPLALVTWVPMFLSTLLAPYQALRLWARGTWTQATGLGCALLAAHAVVLCALPVHVAVEHQLPPASRCVLVFEQVRFLMKSYSFLREAVPGTLRARRGEGIQAPSFSSYLYFLFCPTLIYRETYPRTPYVRWNYVAKNFAQALGCVLYACFILGRLCVPVFANMSREPFSTRALVLSILHATLPGIFMLLLIFFAFLHCWLNAFAEMLRFGDRMFYRDWWNSTSFSNYYRTWNVVVHDWLYSYVYQDGLRLLGARARGVAMLGVFLVSAVAHEYIFCFVLGFFYPVMLILFLVIGGMLNFMMHDQRTGPAWNVLMWTMLFLGQGIQVSLYCQEWYARRHCPLPQATFWGLVTPRSWSCHT

> <PDB ID(s) of Target Chain>


> <UniProt (SwissProt) Recommended Name of Target Chain>
Sterol O-acyltransferase 2

> <UniProt (SwissProt) Entry Name of Target Chain>
ACAT-2

> <UniProt (SwissProt) Primary ID of Target Chain>
O75908

> <UniProt (SwissProt) Secondary ID(s) of Target Chain>
F5H7W4 I6L9H9 Q4VB99 Q4VBA1 Q96TD4 Q9UNR2

> <UniProt (SwissProt) Alternative ID(s) of Target Chain>


> <UniProt (TrEMBL) Submitted Name of Target Chain>


> <UniProt (TrEMBL) Entry Name of Target Chain>


> <UniProt (TrEMBL) Primary ID of Target Chain>


> <UniProt (TrEMBL) Secondary ID(s) of Target Chain>


> <UniProt (TrEMBL) Alternative ID(s) of Target Chain>


$$$$

  Mrv0541 11241417082D          

 39 43  0  0  0  0            999 V2000
   18.4077  -20.1008    0.0000 C   0  0  0  0  0  0  0  0  0  0  0  0
   18.4064  -20.9281    0.0000 C   0  0  0  0  0  0  0  0  0  0  0  0
   19.1213  -21.3410    0.0000 N   0  0  0  0  0  0  0  0  0  0  0  0
   19.8378  -20.9277    0.0000 C   0  0  0  0  0  0  0  0  0  0  0  0
   19.8349  -20.0971    0.0000 C   0  0  0  0  0  0  0  0  0  0  0  0
   19.1195  -19.6880    0.0000 C   0  0  0  0  0  0  0  0  0  0  0  0
   20.5506  -21.3383    0.0000 N   0  0  0  0  0  0  0  0  0  0  0  0
   20.5499  -22.1643    0.0000 C   0  0  0  0  0  0  0  0  0  0  0  0
   21.2610  -22.5756    0.0000 C   0  0  0  0  0  0  0  0  0  0  0  0
   21.9773  -22.1655    0.0000 C   0  0  0  0  0  0  0  0  0  0  0  0
   21.9779  -21.3394    0.0000 C   0  0  0  0  0  0  0  0  0  0  0  0
   21.2624  -20.9236    0.0000 C   0  0  0  0  0  0  0  0  0  0  0  0
   22.6909  -22.5795    0.0000 C   0  0  0  0  0  0  0  0  0  0  0  0
   23.4063  -22.1686    0.0000 O   0  0  0  0  0  0  0  0  0  0  0  0
   24.1199  -22.5827    0.0000 C   0  0  0  0  0  0  0  0  0  0  0  0
   24.1130  -23.4062    0.0000 C   0  0  0  0  0  0  0  0  0  0  0  0
   24.8258  -23.8202    0.0000 C   0  0  0  0  0  0  0  0  0  0  0  0
   25.5422  -23.4092    0.0000 C   0  0  0  0  0  0  0  0  0  0  0  0
   25.5414  -22.5799    0.0000 C   0  0  0  0  0  0  0  0  0  0  0  0
   24.8280  -22.1696    0.0000 C   0  0  0  0  0  0  0  0  0  0  0  0
   17.6931  -19.6884    0.0000 N   0  0  0  0  0  0  0  0  0  0  0  0
   16.9787  -20.1012    0.0000 C   0  0  0  0  0  0  0  0  0  0  0  0
   16.2641  -19.6887    0.0000 C   0  0  0  0  0  0  0  0  0  0  0  0
   16.9789  -20.9261    0.0000 O   0  0  0  0  0  0  0  0  0  0  0  0
   26.2553  -22.1664    0.0000 C   0  0  0  0  0  0  0  0  0  0  0  0
   26.9728  -22.5754    0.0000 O   0  0  0  0  0  0  0  0  0  0  0  0
   26.2567  -21.3387    0.0000 O   0  0  0  0  0  0  0  0  0  0  0  0
   16.2675  -18.8631    0.0000 C   0  0  0  0  0  0  0  0  0  0  0  0
   15.5537  -18.4509    0.0000 C   0  0  0  0  0  0  0  0  0  0  0  0
   15.5556  -20.1015    0.0000 C   0  0  0  0  0  0  0  0  0  0  0  0
   14.8413  -19.6929    0.0000 C   0  0  0  0  0  0  0  0  0  0  0  0
   14.8413  -18.8658    0.0000 C   0  0  0  0  0  0  0  0  0  0  0  0
   14.1276  -20.1069    0.0000 O   0  0  0  0  0  0  0  0  0  0  0  0
   13.4122  -19.6958    0.0000 C   0  0  0  0  0  0  0  0  0  0  0  0
   13.4125  -18.8731    0.0000 C   0  0  0  0  0  0  0  0  0  0  0  0
   12.6980  -18.4621    0.0000 C   0  0  0  0  0  0  0  0  0  0  0  0
   11.9834  -18.8761    0.0000 C   0  0  0  0  0  0  0  0  0  0  0  0
   11.9877  -19.7054    0.0000 C   0  0  0  0  0  0  0  0  0  0  0  0
   12.7028  -20.1127    0.0000 C   0  0  0  0  0  0  0  0  0  0  0  0
  1  2  2  0  0  0  0
  2  3  1  0  0  0  0
  3  4  2  0  0  0  0
  4  5  1  0  0  0  0
  5  6  2  0  0  0  0
  6  1  1  0  0  0  0
  7  8  1  0  0  0  0
  7 12  1  0  0  0  0
  8  9  1  0  0  0  0
  9 10  1  0  0  0  0
 10 11  1  0  0  0  0
 11 12  1  0  0  0  0
  4  7  1  0  0  0  0
 10 13  1  0  0  0  0
 13 14  1  0  0  0  0
 14 15  1  0  0  0  0
 15 16  2  0  0  0  0
 16 17  1  0  0  0  0
 17 18  2  0  0  0  0
 18 19  1  0  0  0  0
 19 20  2  0  0  0  0
 20 15  1  0  0  0  0
  1 21  1  0  0  0  0
 21 22  1  0  0  0  0
 22 23  1  0  0  0  0
 22 24  2  0  0  0  0
 19 25  1  0  0  0  0
 25 26  1  0  0  0  0
 25 27  2  0  0  0  0
 23 28  2  0  0  0  0
 28 29  1  0  0  0  0
 29 32  2  0  0  0  0
 31 30  2  0  0  0  0
 30 23  1  0  0  0  0
 31 32  1  0  0  0  0
 31 33  1  0  0  0  0
 33 34  1  0  0  0  0
 34 35  2  0  0  0  0
 35 36  1  0  0  0  0
 36 37  2  0  0  0  0
 37 38  1  0  0  0  0
 38 39  2  0  0  0  0
 39 34  1  0  0  0  0
M  END
> <From>
www.bindingDB.org

> <BindingDB Reactant_set_id>
51052034

> <Ligand InChI>
InChI=1S/C31H29N3O5/c35-30(23-6-4-11-28(18-23)39-26-8-2-1-3-9-26)33-25-12-13-29(32-20-25)34-16-14-22(15-17-34)21-38-27-10-5-7-24(19-27)31(36)37/h1-13,18-20,22H,14-17,21H2,(H,33,35)(H,36,37)

> <Ligand InChI Key>
RBDSYHYBFFEKPK-UHFFFAOYSA-N

> <BindingDB MonomerID>
50429008

> <BindingDB Ligand Name>
CHEMBL2334082

> <Target Name>
Sterol O-acyltransferase 2

> <Target Source Organism According to Curator or DataSource>


> <Ki (nM)>


> <IC50 (nM)>
>40000

> <Kd (nM)>


> <EC50 (nM)>


> <kon (M-1-s-1)>


> <koff (s-1)>


> <pH>


> <Temp (C)>


> <Curation/DataSource>
ChEMBL

> <Article DOI>
10.1016/j.bmcl.2012.12.040

> <BindingDB Entry DOI>
10.7270/Q2SX6FJW

> <PMID>
23317570

> <PubChem AID>


> <Patent Number>


> <Authors>
Ting, PC; Lee, JF; Zorn, N; Kim, HM; Aslanian, RG; Lin, M; Smith, M; Walker, SS; Cook, J; Van Heek, M; Lachowicz, J

> <Institution>
Merck Research Laboratories

> <Link to Ligand in BindingDB>
http://www.bindingdb.org/bind/chemsearch/marvin/MolStructure.jsp?monomerid=50429008

> <Link to Target in BindingDB>
http://www.bindingdb.org/jsp/dbsearch/PrimarySearch_ki.jsp?energyterm=kJ/mole&tag=pol&polymerid=7773&target=Sterol+O-acyltransferase+2&column=ki&startPg=0&Increment=50&submit=Search

> <Link to Ligand-Target Pair in BindingDB>
http://www.bindingdb.org/jsp/dbsearch/PrimarySearch_ki.jsp?energyterm=kJ/mole&tag=r21&monomerid=50429008&enzyme=Sterol+O-acyltransferase+2&column=ki&startPg=0&Increment=50&submit=Search

> <Ligand HET ID in PDB>


> <PDB ID(s) for Ligand-Target Complex>


> <PubChem CID>
56840376

> <PubChem SID>
164157883

> <ChEBI ID of Ligand>


> <ChEMBL ID of Ligand>
CHEMBL2334082

> <DrugBank ID of Ligand>


> <IUPHAR_GRAC ID of Ligand>


> <KEGG ID of Ligand>


> <ZINC ID of Ligand>
ZINC95588546

> <Number of Protein Chains in Target (>1 implies a multichain complex)>
1

> <BindingDB Target Chain Sequence>
MEPGGARLRLQRTEGLGGERERQPCGDGNTETHRAPDLVQWTRHMEAVKAQLLEQAQGQLRELLDRAMREAIQSYPSQDKPLPPPPPGSLSRTQEPSLGKQKVFIIRKSLLDELMEVQHFRTIYHMFIAGLCVFIISTLAIDFIDEGRLLLEFDLLIFSFGQLPLALVTWVPMFLSTLLAPYQALRLWARGTWTQATGLGCALLAAHAVVLCALPVHVAVEHQLPPASRCVLVFEQVRFLMKSYSFLREAVPGTLRARRGEGIQAPSFSSYLYFLFCPTLIYRETYPRTPYVRWNYVAKNFAQALGCVLYACFILGRLCVPVFANMSREPFSTRALVLSILHATLPGIFMLLLIFFAFLHCWLNAFAEMLRFGDRMFYRDWWNSTSFSNYYRTWNVVVHDWLYSYVYQDGLRLLGARARGVAMLGVFLVSAVAHEYIFCFVLGFFYPVMLILFLVIGGMLNFMMHDQRTGPAWNVLMWTMLFLGQGIQVSLYCQEWYARRHCPLPQATFWGLVTPRSWSCHT

> <PDB ID(s) of Target Chain>


> <UniProt (SwissProt) Recommended Name of Target Chain>
Sterol O-acyltransferase 2

> <UniProt (SwissProt) Entry Name of Target Chain>
ACAT-2

> <UniProt (SwissProt) Primary ID of Target Chain>
O75908

> <UniProt (SwissProt) Secondary ID(s) of Target Chain>
F5H7W4 I6L9H9 Q4VB99 Q4VBA1 Q96TD4 Q9UNR2

> <UniProt (SwissProt) Alternative ID(s) of Target Chain>


> <UniProt (TrEMBL) Submitted Name of Target Chain>


> <UniProt (TrEMBL) Entry Name of Target Chain>


> <UniProt (TrEMBL) Primary ID of Target Chain>


> <UniProt (TrEMBL) Secondary ID(s) of Target Chain>


> <UniProt (TrEMBL) Alternative ID(s) of Target Chain>


$$$$

  Mrv0541 11221401292D          

 31 34  0  0  0  0            999 V2000
    3.8986  -16.6000    0.0000 C   0  0  0  0  0  0  0  0  0  0  0  0
    3.8974  -17.4274    0.0000 C   0  0  0  0  0  0  0  0  0  0  0  0
    4.6123  -17.8402    0.0000 C   0  0  0  0  0  0  0  0  0  0  0  0
    5.3258  -16.5964    0.0000 C   0  0  0  0  0  0  0  0  0  0  0  0
    5.3266  -17.4232    0.0000 C   0  0  0  0  0  0  0  0  0  0  0  0
    6.0419  -17.8342    0.0000 O   0  0  0  0  0  0  0  0  0  0  0  0
    3.1840  -16.1877    0.0000 C   0  0  0  0  0  0  0  0  0  0  0  0
    3.1820  -15.3573    0.0000 C   0  0  0  0  0  0  0  0  0  0  0  0
    2.4715  -14.9450    0.0000 C   0  0  0  0  0  0  0  0  0  0  0  0
    2.4680  -16.5970    0.0000 O   0  0  0  0  0  0  0  0  0  0  0  0
    1.7529  -16.1802    0.0000 C   0  0  0  0  0  0  0  0  0  0  0  0
    1.7578  -15.3560    0.0000 C   0  0  0  0  0  0  0  0  0  0  0  0
    1.0477  -14.9416    0.0000 C   0  0  0  0  0  0  0  0  0  0  0  0
    1.0420  -16.5881    0.0000 C   0  0  0  0  0  0  0  0  0  0  0  0
    2.4729  -14.1200    0.0000 O   0  0  0  0  0  0  0  0  0  0  0  0
    1.0516  -14.1166    0.0000 O   0  0  0  0  0  0  0  0  0  0  0  0
    3.1827  -17.8393    0.0000 O   0  0  0  0  0  0  0  0  0  0  0  0
    0.3313  -16.1773    0.0000 C   0  0  0  0  0  0  0  0  0  0  0  0
    0.3354  -15.3501    0.0000 C   0  0  0  0  0  0  0  0  0  0  0  0
   -0.3749  -14.9352    0.0000 C   0  0  0  0  0  0  0  0  0  0  0  0
   -1.0940  -15.3429    0.0000 C   0  0  0  0  0  0  0  0  0  0  0  0
   -1.0982  -16.1702    0.0000 C   0  0  0  0  0  0  0  0  0  0  0  0
   -0.3832  -16.5897    0.0000 O   0  0  0  0  0  0  0  0  0  0  0  0
   -1.1041  -16.9917    0.0000 C   0  0  0  0  0  0  0  0  0  0  0  0
    3.8964  -14.9447    0.0000 C   0  0  0  0  0  0  0  0  0  0  0  0
    4.6109  -15.3571    0.0000 C   0  0  0  0  0  0  0  0  0  0  0  0
    4.6111  -16.1821    0.0000 C   0  0  0  0  0  0  0  0  0  0  0  0
    5.3253  -14.9445    0.0000 C   0  0  0  0  0  0  0  0  0  0  0  0
    6.0399  -15.3569    0.0000 C   0  0  0  0  0  0  0  0  0  0  0  0
    5.3252  -14.1195    0.0000 C   0  0  0  0  0  0  0  0  0  0  0  0
   -1.8139  -15.7551    0.0000 C   0  0  0  0  0  0  0  0  0  0  0  0
 14 11  2  0  0  0  0
  3  5  1  0  0  0  0
  9 15  2  0  0  0  0
  7  1  1  0  0  0  0
 13 16  1  0  0  0  0
  7  8  2  0  0  0  0
  2 17  1  0  0  0  0
 18 19  2  0  0  0  0
  4 27  1  0  0  0  0
 27  1  2  0  0  0  0
  1  2  1  0  0  0  0
  7 10  1  0  0  0  0
  8  9  1  0  0  0  0
  9 12  1  0  0  0  0
 18 23  1  0  0  0  0
 19 20  1  0  0  0  0
 20 21  2  0  0  0  0
 21 22  1  0  0  0  0
 22 23  1  0  0  0  0
 11 10  1  0  0  0  0
 22 24  1  0  0  0  0
  4  5  2  0  0  0  0
  8 25  1  0  0  0  0
 11 12  1  0  0  0  0
 25 26  1  0  0  0  0
  2  3  2  0  0  0  0
 12 13  2  0  0  0  0
 26 28  2  0  0  0  0
 13 19  1  0  0  0  0
 28 29  1  0  0  0  0
  5  6  1  0  0  0  0
 18 14  1  0  0  0  0
 28 30  1  0  0  0  0
 22 31  1  0  0  0  0
M  END
> <From>
www.bindingDB.org

> <BindingDB Reactant_set_id>
50357569

> <Ligand InChI>
InChI=1S/C25H24O6/c1-13(2)5-7-17-23(29)21-20(30-24(17)15-8-6-14(26)11-18(15)27)12-19-16(22(21)28)9-10-25(3,4)31-19/h5-6,8-12,26-28H,7H2,1-4H3

> <Ligand InChI Key>
XIWCDUHPYMOFIL-UHFFFAOYSA-N

> <BindingDB MonomerID>
50193718

> <BindingDB Ligand Name>
2-(2,4-dihydroxy-phenyl)-5-hydroxy-8,8-dimethyl-3-(3-methyl-but-2-enyl)-8H-pyrano[3,2-g]chromen-4-one::2-(2,4-dihydroxyphenyl)-5-hydroxy-8,8-dimethyl-3-(3-methylbut-2-enyl)pyrano[3,2-g]chromen-4(8H)-one::CHEMBL221907::cid_5319925::cudraflavone B

> <Target Name>
Sterol O-acyltransferase 2

> <Target Source Organism According to Curator or DataSource>


> <Ki (nM)>


> <IC50 (nM)>
 41600

> <Kd (nM)>


> <EC50 (nM)>


> <kon (M-1-s-1)>


> <koff (s-1)>


> <pH>


> <Temp (C)>


> <Curation/DataSource>
ChEMBL

> <Article DOI>
10.1016/j.bmcl.2006.08.032

> <BindingDB Entry DOI>
10.7270/Q2PV6K0R

> <PMID>
16919944

> <PubChem AID>


> <Patent Number>


> <Authors>
Park, KH; Park, YD; Han, JM; Im, KR; Lee, BW; Jeong, IY; Jeong, TS; Lee, WS

> <Institution>
National Research Laboratory of Lipid Metabolism and Atherosclerosis

> <Link to Ligand in BindingDB>
http://www.bindingdb.org/bind/chemsearch/marvin/MolStructure.jsp?monomerid=50193718

> <Link to Target in BindingDB>
http://www.bindingdb.org/jsp/dbsearch/PrimarySearch_ki.jsp?energyterm=kJ/mole&tag=pol&polymerid=7773&target=Sterol+O-acyltransferase+2&column=ki&startPg=0&Increment=50&submit=Search

> <Link to Ligand-Target Pair in BindingDB>
http://www.bindingdb.org/jsp/dbsearch/PrimarySearch_ki.jsp?energyterm=kJ/mole&tag=r21&monomerid=50193718&enzyme=Sterol+O-acyltransferase+2&column=ki&startPg=0&Increment=50&submit=Search

> <Ligand HET ID in PDB>


> <PDB ID(s) for Ligand-Target Complex>


> <PubChem CID>
5319925

> <PubChem SID>
104076117

> <ChEBI ID of Ligand>
67850

> <ChEMBL ID of Ligand>
CHEMBL221907

> <DrugBank ID of Ligand>


> <IUPHAR_GRAC ID of Ligand>


> <KEGG ID of Ligand>


> <ZINC ID of Ligand>
ZINC13130923

> <Number of Protein Chains in Target (>1 implies a multichain complex)>
1

> <BindingDB Target Chain Sequence>
MEPGGARLRLQRTEGLGGERERQPCGDGNTETHRAPDLVQWTRHMEAVKAQLLEQAQGQLRELLDRAMREAIQSYPSQDKPLPPPPPGSLSRTQEPSLGKQKVFIIRKSLLDELMEVQHFRTIYHMFIAGLCVFIISTLAIDFIDEGRLLLEFDLLIFSFGQLPLALVTWVPMFLSTLLAPYQALRLWARGTWTQATGLGCALLAAHAVVLCALPVHVAVEHQLPPASRCVLVFEQVRFLMKSYSFLREAVPGTLRARRGEGIQAPSFSSYLYFLFCPTLIYRETYPRTPYVRWNYVAKNFAQALGCVLYACFILGRLCVPVFANMSREPFSTRALVLSILHATLPGIFMLLLIFFAFLHCWLNAFAEMLRFGDRMFYRDWWNSTSFSNYYRTWNVVVHDWLYSYVYQDGLRLLGARARGVAMLGVFLVSAVAHEYIFCFVLGFFYPVMLILFLVIGGMLNFMMHDQRTGPAWNVLMWTMLFLGQGIQVSLYCQEWYARRHCPLPQATFWGLVTPRSWSCHT

> <PDB ID(s) of Target Chain>


> <UniProt (SwissProt) Recommended Name of Target Chain>
Sterol O-acyltransferase 2

> <UniProt (SwissProt) Entry Name of Target Chain>
ACAT-2

> <UniProt (SwissProt) Primary ID of Target Chain>
O75908

> <UniProt (SwissProt) Secondary ID(s) of Target Chain>
F5H7W4 I6L9H9 Q4VB99 Q4VBA1 Q96TD4 Q9UNR2

> <UniProt (SwissProt) Alternative ID(s) of Target Chain>


> <UniProt (TrEMBL) Submitted Name of Target Chain>


> <UniProt (TrEMBL) Entry Name of Target Chain>


> <UniProt (TrEMBL) Primary ID of Target Chain>


> <UniProt (TrEMBL) Secondary ID(s) of Target Chain>


> <UniProt (TrEMBL) Alternative ID(s) of Target Chain>


$$$$

  Mrv0541 11221401292D          

 26 28  0  0  0  0            999 V2000
   -0.6119   -6.5188    0.0000 C   0  0  0  0  0  0  0  0  0  0  0  0
    0.0999   -6.1062    0.0000 C   0  0  0  0  0  0  0  0  0  0  0  0
    0.8152   -6.5152    0.0000 C   0  0  0  0  0  0  0  0  0  0  0  0
    0.8140   -7.3482    0.0000 C   0  0  0  0  0  0  0  0  0  0  0  0
    1.5309   -7.7634    0.0000 O   0  0  0  0  0  0  0  0  0  0  0  0
    1.5333   -6.0974    0.0000 C   0  0  0  0  0  0  0  0  0  0  0  0
    2.2546   -6.5173    0.0000 C   0  0  0  0  0  0  0  0  0  0  0  0
    2.2533   -7.3461    0.0000 C   0  0  0  0  0  0  0  0  0  0  0  0
    2.9694   -7.7599    0.0000 C   0  0  0  0  0  0  0  0  0  0  0  0
    3.6871   -7.3458    0.0000 C   0  0  0  0  0  0  0  0  0  0  0  0
    3.6843   -6.5138    0.0000 C   0  0  0  0  0  0  0  0  0  0  0  0
    2.9679   -6.1039    0.0000 C   0  0  0  0  0  0  0  0  0  0  0  0
    1.5334   -5.2725    0.0000 O   0  0  0  0  0  0  0  0  0  0  0  0
    2.9655   -5.2788    0.0000 O   0  0  0  0  0  0  0  0  0  0  0  0
   -1.3264   -6.1066    0.0000 O   0  0  0  0  0  0  0  0  0  0  0  0
    0.1017   -7.7590    0.0000 C   0  0  0  0  0  0  0  0  0  0  0  0
   -0.6162   -7.3476    0.0000 C   0  0  0  0  0  0  0  0  0  0  0  0
   -1.3274   -7.7613    0.0000 O   0  0  0  0  0  0  0  0  0  0  0  0
    2.9691   -8.5847    0.0000 C   0  0  0  0  0  0  0  0  0  0  0  0
    2.9613   -9.4057    0.0000 C   0  0  0  0  0  0  0  0  0  0  0  0
    3.7900   -8.5888    0.0000 C   0  0  0  0  0  0  0  0  0  0  0  0
    2.1481   -8.5846    0.0000 C   0  0  0  0  0  0  0  0  0  0  0  0
    2.2463   -9.8093    0.0000 C   0  0  0  0  0  0  0  0  0  0  0  0
    4.4055   -7.7591    0.0000 C   0  0  0  0  0  0  0  0  0  0  0  0
    1.5393   -9.3921    0.0000 C   0  0  0  0  0  0  0  0  0  0  0  0
    2.2384  -10.6304    0.0000 C   0  0  0  0  0  0  0  0  0  0  0  0
  7  6  1  0  0  0  0
  2  1  1  0  0  0  0
  3  4  1  0  0  0  0
  7  8  1  0  0  0  0
  1 17  2  0  0  0  0
  8  9  2  0  0  0  0
 17 18  1  0  0  0  0
 16  4  2  0  0  0  0
  9 10  1  0  0  0  0
 10 11  2  0  0  0  0
  9 19  1  0  0  0  0
  3  2  2  0  0  0  0
 11 12  1  0  0  0  0
 12  7  2  0  0  0  0
  3  6  1  0  0  0  0
 19 20  1  0  0  0  0
  6 13  2  0  0  0  0
 19 21  1  0  0  0  0
  4  5  1  0  0  0  0
 19 22  1  0  0  0  0
 12 14  1  0  0  0  0
 20 23  2  0  0  0  0
  5  8  1  0  0  0  0
 10 24  1  0  0  0  0
  1 15  1  0  0  0  0
 23 25  1  0  0  0  0
 16 17  1  0  0  0  0
 23 26  1  0  0  0  0
M  END
> <From>
www.bindingDB.org

> <BindingDB Reactant_set_id>
50357588

> <Ligand InChI>
InChI=1S/C21H22O5/c1-10(2)9-21(4,5)18-11(3)6-15(24)17-19(25)12-7-13(22)14(23)8-16(12)26-20(17)18/h6-9,22-24H,1-5H3

> <Ligand InChI Key>
BFCORSRKGHOBIS-UHFFFAOYSA-N

> <BindingDB MonomerID>
50193722

> <BindingDB Ligand Name>
4-(2,4-dimethylpent-3-en-2-yl)-1,6,7-trihydroxy-3-methyl-9H-xanthen-9-one::CHEMBL218383

> <Target Name>
Sterol O-acyltransferase 2

> <Target Source Organism According to Curator or DataSource>


> <Ki (nM)>


> <IC50 (nM)>
 41600

> <Kd (nM)>


> <EC50 (nM)>


> <kon (M-1-s-1)>


> <koff (s-1)>


> <pH>


> <Temp (C)>


> <Curation/DataSource>
ChEMBL

> <Article DOI>
10.1016/j.bmcl.2006.08.032

> <BindingDB Entry DOI>
10.7270/Q2PV6K0R

> <PMID>
16919944

> <PubChem AID>


> <Patent Number>


> <Authors>
Park, KH; Park, YD; Han, JM; Im, KR; Lee, BW; Jeong, IY; Jeong, TS; Lee, WS

> <Institution>
National Research Laboratory of Lipid Metabolism and Atherosclerosis

> <Link to Ligand in BindingDB>
http://www.bindingdb.org/bind/chemsearch/marvin/MolStructure.jsp?monomerid=50193722

> <Link to Target in BindingDB>
http://www.bindingdb.org/jsp/dbsearch/PrimarySearch_ki.jsp?energyterm=kJ/mole&tag=pol&polymerid=7773&target=Sterol+O-acyltransferase+2&column=ki&startPg=0&Increment=50&submit=Search

> <Link to Ligand-Target Pair in BindingDB>
http://www.bindingdb.org/jsp/dbsearch/PrimarySearch_ki.jsp?energyterm=kJ/mole&tag=r21&monomerid=50193722&enzyme=Sterol+O-acyltransferase+2&column=ki&startPg=0&Increment=50&submit=Search

> <Ligand HET ID in PDB>


> <PDB ID(s) for Ligand-Target Complex>


> <PubChem CID>
44419437

> <PubChem SID>
104076121

> <ChEBI ID of Ligand>


> <ChEMBL ID of Ligand>
CHEMBL218383

> <DrugBank ID of Ligand>


> <IUPHAR_GRAC ID of Ligand>


> <KEGG ID of Ligand>


> <ZINC ID of Ligand>
ZINC40576279

> <Number of Protein Chains in Target (>1 implies a multichain complex)>
1

> <BindingDB Target Chain Sequence>
MEPGGARLRLQRTEGLGGERERQPCGDGNTETHRAPDLVQWTRHMEAVKAQLLEQAQGQLRELLDRAMREAIQSYPSQDKPLPPPPPGSLSRTQEPSLGKQKVFIIRKSLLDELMEVQHFRTIYHMFIAGLCVFIISTLAIDFIDEGRLLLEFDLLIFSFGQLPLALVTWVPMFLSTLLAPYQALRLWARGTWTQATGLGCALLAAHAVVLCALPVHVAVEHQLPPASRCVLVFEQVRFLMKSYSFLREAVPGTLRARRGEGIQAPSFSSYLYFLFCPTLIYRETYPRTPYVRWNYVAKNFAQALGCVLYACFILGRLCVPVFANMSREPFSTRALVLSILHATLPGIFMLLLIFFAFLHCWLNAFAEMLRFGDRMFYRDWWNSTSFSNYYRTWNVVVHDWLYSYVYQDGLRLLGARARGVAMLGVFLVSAVAHEYIFCFVLGFFYPVMLILFLVIGGMLNFMMHDQRTGPAWNVLMWTMLFLGQGIQVSLYCQEWYARRHCPLPQATFWGLVTPRSWSCHT

> <PDB ID(s) of Target Chain>


> <UniProt (SwissProt) Recommended Name of Target Chain>
Sterol O-acyltransferase 2

> <UniProt (SwissProt) Entry Name of Target Chain>
ACAT-2

> <UniProt (SwissProt) Primary ID of Target Chain>
O75908

> <UniProt (SwissProt) Secondary ID(s) of Target Chain>
F5H7W4 I6L9H9 Q4VB99 Q4VBA1 Q96TD4 Q9UNR2

> <UniProt (SwissProt) Alternative ID(s) of Target Chain>


> <UniProt (TrEMBL) Submitted Name of Target Chain>


> <UniProt (TrEMBL) Entry Name of Target Chain>


> <UniProt (TrEMBL) Primary ID of Target Chain>


> <UniProt (TrEMBL) Secondary ID(s) of Target Chain>


> <UniProt (TrEMBL) Alternative ID(s) of Target Chain>


$$$$

  Mrv0541 11221401292D          

 32 35  0  0  1  0            999 V2000
   12.2907  -11.7749    0.0000 C   0  0  0  0  0  0  0  0  0  0  0  0
   12.2895  -12.6023    0.0000 C   0  0  0  0  0  0  0  0  0  0  0  0
   13.0045  -13.0153    0.0000 C   0  0  0  0  0  0  0  0  0  0  0  0
   13.0027  -11.3621    0.0000 C   0  0  0  0  0  0  0  0  0  0  0  0
   13.7180  -11.7712    0.0000 C   0  0  0  0  0  0  0  0  0  0  0  0
   13.7188  -12.5982    0.0000 C   0  0  0  0  0  0  0  0  0  0  0  0
   14.4342  -13.0092    0.0000 O   0  0  0  0  0  0  0  0  0  0  0  0
   15.1493  -12.5944    0.0000 C   0  0  0  0  0  0  0  0  0  0  0  0
   15.1446  -11.7643    0.0000 C   0  0  0  0  0  0  0  0  0  0  0  0
   14.4286  -11.3571    0.0000 C   0  0  0  0  0  0  0  0  0  0  0  0
   11.5760  -11.3625    0.0000 C   0  0  2  0  0  0  0  0  0  0  0  0
   11.5740  -10.5320    0.0000 C   0  0  0  0  0  0  0  0  0  0  0  0
   10.8635  -10.1198    0.0000 C   0  0  0  0  0  0  0  0  0  0  0  0
   10.8599  -11.7718    0.0000 O   0  0  0  0  0  0  0  0  0  0  0  0
   10.1448  -11.3550    0.0000 C   0  0  0  0  0  0  0  0  0  0  0  0
   10.1496  -10.5308    0.0000 C   0  0  0  0  0  0  0  0  0  0  0  0
    9.4394  -10.1163    0.0000 C   0  0  0  0  0  0  0  0  0  0  0  0
    8.7239  -10.5248    0.0000 C   0  0  0  0  0  0  0  0  0  0  0  0
    8.7230  -11.3522    0.0000 C   0  0  0  0  0  0  0  0  0  0  0  0
    9.4337  -11.7630    0.0000 C   0  0  0  0  0  0  0  0  0  0  0  0
   10.8649   -9.2947    0.0000 O   0  0  0  0  0  0  0  0  0  0  0  0
    9.4433   -9.2912    0.0000 O   0  0  0  0  0  0  0  0  0  0  0  0
    8.0081  -11.7642    0.0000 O   0  0  0  0  0  0  0  0  0  0  0  0
   11.5746  -13.0144    0.0000 O   0  0  0  0  0  0  0  0  0  0  0  0
   15.1424  -13.4168    0.0000 C   0  0  0  0  0  0  0  0  0  0  0  0
    9.4325  -12.5881    0.0000 C   0  0  0  0  0  0  0  0  0  0  0  0
   10.1464  -13.0018    0.0000 C   0  0  0  0  0  0  0  0  0  0  0  0
   10.1451  -13.8268    0.0000 C   0  0  0  0  0  0  0  0  0  0  0  0
   10.1378  -14.6502    0.0000 O   0  0  0  0  0  0  0  0  0  0  0  0
   10.9670  -13.8251    0.0000 C   0  0  0  0  0  0  0  0  0  0  0  0
    9.3168  -13.8251    0.0000 C   0  0  0  0  0  0  0  0  0  0  0  0
   15.8706  -12.1903    0.0000 C   0  0  0  0  0  0  0  0  0  0  0  0
  6  7  1  0  0  0  0
  1  2  2  0  0  0  0
 15 16  2  0  0  0  0
  7  8  1  0  0  0  0
 16 17  1  0  0  0  0
  5  4  2  0  0  0  0
 17 18  2  0  0  0  0
  8  9  1  0  0  0  0
 18 19  1  0  0  0  0
  4  1  1  0  0  0  0
 19 20  2  0  0  0  0
 20 15  1  0  0  0  0
  9 10  2  0  0  0  0
 13 21  2  0  0  0  0
 10  5  1  0  0  0  0
 17 22  1  0  0  0  0
 19 23  1  0  0  0  0
 11  1  1  1  0  0  0
  2 24  1  0  0  0  0
 11 12  1  0  0  0  0
  8 25  1  0  0  0  0
  2  3  1  0  0  0  0
  5  6  1  0  0  0  0
 20 26  1  0  0  0  0
  3  6  2  0  0  0  0
 26 27  1  0  0  0  0
 11 14  1  0  0  0  0
 27 28  1  0  0  0  0
 12 13  1  0  0  0  0
 28 29  1  0  0  0  0
 13 16  1  0  0  0  0
 28 30  1  0  0  0  0
 15 14  1  0  0  0  0
 28 31  1  0  0  0  0
  8 32  1  0  0  0  0
M  END
> <From>
www.bindingDB.org

> <BindingDB Reactant_set_id>
50357583

> <Ligand InChI>
InChI=1S/C25H28O7/c1-24(2,30)7-6-14-16(26)10-18(28)22-19(29)12-21(31-23(14)22)15-9-13-5-8-25(3,4)32-20(13)11-17(15)27/h5,8-11,21,26-28,30H,6-7,12H2,1-4H3/t21-/m0/s1

> <Ligand InChI Key>
YRFONVUVHGLFMJ-NRFANRHFSA-N

> <BindingDB MonomerID>
50193720

> <BindingDB Ligand Name>
(S)-5,7,7'-trihydroxy-8-(3-hydroxy-3-methylbutyl)-2',2'-dimethyl-2,6'-bichroman-4-one::(S)-5,7-dihydroxy-2-(7-hydroxy-2,2-dimethyl-2H-chromen-6-yl)-8-(3-hydroxy-3-methylbutyl)chroman-4-one::CHEMBL218550

> <Target Name>
Sterol O-acyltransferase 2

> <Target Source Organism According to Curator or DataSource>


> <Ki (nM)>


> <IC50 (nM)>
 44800

> <Kd (nM)>


> <EC50 (nM)>


> <kon (M-1-s-1)>


> <koff (s-1)>


> <pH>


> <Temp (C)>


> <Curation/DataSource>
ChEMBL

> <Article DOI>
10.1016/j.bmcl.2006.08.032

> <BindingDB Entry DOI>
10.7270/Q2PV6K0R

> <PMID>
16919944

> <PubChem AID>


> <Patent Number>


> <Authors>
Park, KH; Park, YD; Han, JM; Im, KR; Lee, BW; Jeong, IY; Jeong, TS; Lee, WS

> <Institution>
National Research Laboratory of Lipid Metabolism and Atherosclerosis

> <Link to Ligand in BindingDB>
http://www.bindingdb.org/bind/chemsearch/marvin/MolStructure.jsp?monomerid=50193720

> <Link to Target in BindingDB>
http://www.bindingdb.org/jsp/dbsearch/PrimarySearch_ki.jsp?energyterm=kJ/mole&tag=pol&polymerid=7773&target=Sterol+O-acyltransferase+2&column=ki&startPg=0&Increment=50&submit=Search

> <Link to Ligand-Target Pair in BindingDB>
http://www.bindingdb.org/jsp/dbsearch/PrimarySearch_ki.jsp?energyterm=kJ/mole&tag=r21&monomerid=50193720&enzyme=Sterol+O-acyltransferase+2&column=ki&startPg=0&Increment=50&submit=Search

> <Ligand HET ID in PDB>


> <PDB ID(s) for Ligand-Target Complex>


> <PubChem CID>
44419447

> <PubChem SID>
104076119

> <ChEBI ID of Ligand>


> <ChEMBL ID of Ligand>
CHEMBL218550

> <DrugBank ID of Ligand>


> <IUPHAR_GRAC ID of Ligand>


> <KEGG ID of Ligand>


> <ZINC ID of Ligand>
ZINC40576223

> <Number of Protein Chains in Target (>1 implies a multichain complex)>
1

> <BindingDB Target Chain Sequence>
MEPGGARLRLQRTEGLGGERERQPCGDGNTETHRAPDLVQWTRHMEAVKAQLLEQAQGQLRELLDRAMREAIQSYPSQDKPLPPPPPGSLSRTQEPSLGKQKVFIIRKSLLDELMEVQHFRTIYHMFIAGLCVFIISTLAIDFIDEGRLLLEFDLLIFSFGQLPLALVTWVPMFLSTLLAPYQALRLWARGTWTQATGLGCALLAAHAVVLCALPVHVAVEHQLPPASRCVLVFEQVRFLMKSYSFLREAVPGTLRARRGEGIQAPSFSSYLYFLFCPTLIYRETYPRTPYVRWNYVAKNFAQALGCVLYACFILGRLCVPVFANMSREPFSTRALVLSILHATLPGIFMLLLIFFAFLHCWLNAFAEMLRFGDRMFYRDWWNSTSFSNYYRTWNVVVHDWLYSYVYQDGLRLLGARARGVAMLGVFLVSAVAHEYIFCFVLGFFYPVMLILFLVIGGMLNFMMHDQRTGPAWNVLMWTMLFLGQGIQVSLYCQEWYARRHCPLPQATFWGLVTPRSWSCHT

> <PDB ID(s) of Target Chain>


> <UniProt (SwissProt) Recommended Name of Target Chain>
Sterol O-acyltransferase 2

> <UniProt (SwissProt) Entry Name of Target Chain>
ACAT-2

> <UniProt (SwissProt) Primary ID of Target Chain>
O75908

> <UniProt (SwissProt) Secondary ID(s) of Target Chain>
F5H7W4 I6L9H9 Q4VB99 Q4VBA1 Q96TD4 Q9UNR2

> <UniProt (SwissProt) Alternative ID(s) of Target Chain>


> <UniProt (TrEMBL) Submitted Name of Target Chain>


> <UniProt (TrEMBL) Entry Name of Target Chain>


> <UniProt (TrEMBL) Primary ID of Target Chain>


> <UniProt (TrEMBL) Secondary ID(s) of Target Chain>


> <UniProt (TrEMBL) Alternative ID(s) of Target Chain>


$$$$

  Mrv0541 11221423482D          

 26 27  0  0  0  0            999 V2000
    2.8167   -3.9000    0.0000 C   0  0  0  0  0  0  0  0  0  0  0  0
    2.1000   -4.3125    0.0000 C   0  0  0  0  0  0  0  0  0  0  0  0
    1.3792   -3.8917    0.0000 C   0  0  0  0  0  0  0  0  0  0  0  0
    2.8167   -3.0667    0.0000 C   0  0  0  0  0  0  0  0  0  0  0  0
    2.1000   -2.6542    0.0000 C   0  0  0  0  0  0  0  0  0  0  0  0
    1.3875   -3.0667    0.0000 C   0  0  0  0  0  0  0  0  0  0  0  0
    3.5292   -4.3125    0.0000 C   0  0  0  0  0  0  0  0  0  0  0  0
    0.6667   -4.3125    0.0000 C   0  0  0  0  0  0  0  0  0  0  0  0
    3.5292   -5.1375    0.0000 O   0  0  0  0  0  0  0  0  0  0  0  0
    0.6667   -2.6542    0.0000 C   0  0  0  0  0  0  0  0  0  0  0  0
    2.0917   -5.1375    0.0000 O   0  0  0  0  0  0  0  0  0  0  0  0
    4.2417   -5.5542    0.0000 C   0  0  0  0  0  0  0  0  0  0  0  0
    4.9542   -4.3167    0.0000 C   0  0  0  0  0  0  0  0  0  0  0  0
    2.1000   -1.8292    0.0000 O   0  0  0  0  0  0  0  0  0  0  0  0
    4.2417   -3.9042    0.0000 C   0  0  0  0  0  0  0  0  0  0  0  0
    5.6750   -3.9042    0.0000 C   0  0  0  0  0  0  0  0  0  0  0  0
    4.2375   -6.3792    0.0000 O   0  0  0  0  0  0  0  0  0  0  0  0
   -0.0458   -3.9000    0.0000 C   0  0  0  0  0  0  0  0  0  0  0  0
   -0.0458   -3.0750    0.0000 C   0  0  0  0  0  0  0  0  0  0  0  0
    0.6750   -5.1375    0.0000 O   0  0  0  0  0  0  0  0  0  0  0  0
    0.6667   -1.8292    0.0000 O   0  0  0  0  0  0  0  0  0  0  0  0
    4.9542   -5.1417    0.0000 C   0  0  0  0  0  0  0  0  0  0  0  0
    6.3875   -4.3167    0.0000 C   0  0  0  0  0  0  0  0  0  0  0  0
    5.6750   -3.0792    0.0000 C   0  0  0  0  0  0  0  0  0  0  0  0
    5.6667   -5.5542    0.0000 C   0  0  0  0  0  0  0  0  0  0  0  0
    6.3875   -5.1417    0.0000 C   0  0  0  0  0  0  0  0  0  0  0  0
  2  1  1  0  0  0  0
  3  2  2  0  0  0  0
  4  1  2  0  0  0  0
  5  4  1  0  0  0  0
  6  5  2  0  0  0  0
  7  1  1  0  0  0  0
  8  3  1  0  0  0  0
  7  9  1  0  0  0  0
 10  6  1  0  0  0  0
 11  2  1  0  0  0  0
 12  9  1  0  0  0  0
 15 13  1  4  0  0  0
 14  5  1  0  0  0  0
 15  7  2  0  0  0  0
 16 13  2  0  0  0  0
 17 12  2  0  0  0  0
 18  8  2  0  0  0  0
 19 10  2  0  0  0  0
 20  8  1  0  0  0  0
 21 10  1  0  0  0  0
 22 12  1  0  0  0  0
 23 16  1  0  0  0  0
 24 16  1  0  0  0  0
 25 22  1  0  0  0  0
 26 25  1  0  0  0  0
  3  6  1  0  0  0  0
 18 19  1  0  0  0  0
M  END
> <From>
www.bindingDB.org

> <BindingDB Reactant_set_id>
50367882

> <Ligand InChI>
InChI=1S/C20H22O6/c1-4-5-17(24)26-16(9-6-11(2)3)12-10-15(23)18-13(21)7-8-14(22)19(18)20(12)25/h6-10,21-23,25H,4-5H2,1-3H3

> <Ligand InChI Key>
DALHJALHQKMQKR-UHFFFAOYSA-N

> <BindingDB MonomerID>
50033739

> <BindingDB Ligand Name>
(R)-1-(5,8-dihydroxy-1,4-dioxo-1,4-dihydronaphthalen-2-yl)-4-methylpent-3-enyl butyrate::Butyric acid (R)-1-(5,8-dihydroxy-1,4-dioxo-1,4-dihydro-naphthalen-2-yl)-4-methyl-pent-3-enyl ester::CHEMBL8806

> <Target Name>
Sterol O-acyltransferase 2

> <Target Source Organism According to Curator or DataSource>


> <Ki (nM)>


> <IC50 (nM)>
 49600

> <Kd (nM)>


> <EC50 (nM)>


> <kon (M-1-s-1)>


> <koff (s-1)>


> <pH>


> <Temp (C)>


> <Curation/DataSource>
ChEMBL

> <Article DOI>
10.1016/j.bmcl.2006.11.024

> <BindingDB Entry DOI>
10.7270/Q2H70FFW

> <PMID>
17157006

> <PubChem AID>


> <Patent Number>


> <Authors>
An, S; Park, YD; Paik, YK; Jeong, TS; Lee, WS

> <Institution>
National Research Laboratory of Lipid Metabolism and Atherosclerosis

> <Link to Ligand in BindingDB>
http://www.bindingdb.org/bind/chemsearch/marvin/MolStructure.jsp?monomerid=50033739

> <Link to Target in BindingDB>
http://www.bindingdb.org/jsp/dbsearch/PrimarySearch_ki.jsp?energyterm=kJ/mole&tag=pol&polymerid=7773&target=Sterol+O-acyltransferase+2&column=ki&startPg=0&Increment=50&submit=Search

> <Link to Ligand-Target Pair in BindingDB>
http://www.bindingdb.org/jsp/dbsearch/PrimarySearch_ki.jsp?energyterm=kJ/mole&tag=r21&monomerid=50033739&enzyme=Sterol+O-acyltransferase+2&column=ki&startPg=0&Increment=50&submit=Search

> <Ligand HET ID in PDB>


> <PDB ID(s) for Ligand-Target Complex>


> <PubChem CID>
91929174

> <PubChem SID>
103941991

> <ChEBI ID of Ligand>


> <ChEMBL ID of Ligand>
CHEMBL8806

> <DrugBank ID of Ligand>


> <IUPHAR_GRAC ID of Ligand>


> <KEGG ID of Ligand>


> <ZINC ID of Ligand>
ZINC13328095

> <Number of Protein Chains in Target (>1 implies a multichain complex)>
1

> <BindingDB Target Chain Sequence>
MEPGGARLRLQRTEGLGGERERQPCGDGNTETHRAPDLVQWTRHMEAVKAQLLEQAQGQLRELLDRAMREAIQSYPSQDKPLPPPPPGSLSRTQEPSLGKQKVFIIRKSLLDELMEVQHFRTIYHMFIAGLCVFIISTLAIDFIDEGRLLLEFDLLIFSFGQLPLALVTWVPMFLSTLLAPYQALRLWARGTWTQATGLGCALLAAHAVVLCALPVHVAVEHQLPPASRCVLVFEQVRFLMKSYSFLREAVPGTLRARRGEGIQAPSFSSYLYFLFCPTLIYRETYPRTPYVRWNYVAKNFAQALGCVLYACFILGRLCVPVFANMSREPFSTRALVLSILHATLPGIFMLLLIFFAFLHCWLNAFAEMLRFGDRMFYRDWWNSTSFSNYYRTWNVVVHDWLYSYVYQDGLRLLGARARGVAMLGVFLVSAVAHEYIFCFVLGFFYPVMLILFLVIGGMLNFMMHDQRTGPAWNVLMWTMLFLGQGIQVSLYCQEWYARRHCPLPQATFWGLVTPRSWSCHT

> <PDB ID(s) of Target Chain>


> <UniProt (SwissProt) Recommended Name of Target Chain>
Sterol O-acyltransferase 2

> <UniProt (SwissProt) Entry Name of Target Chain>
ACAT-2

> <UniProt (SwissProt) Primary ID of Target Chain>
O75908

> <UniProt (SwissProt) Secondary ID(s) of Target Chain>
F5H7W4 I6L9H9 Q4VB99 Q4VBA1 Q96TD4 Q9UNR2

> <UniProt (SwissProt) Alternative ID(s) of Target Chain>


> <UniProt (TrEMBL) Submitted Name of Target Chain>


> <UniProt (TrEMBL) Entry Name of Target Chain>


> <UniProt (TrEMBL) Primary ID of Target Chain>


> <UniProt (TrEMBL) Secondary ID(s) of Target Chain>


> <UniProt (TrEMBL) Alternative ID(s) of Target Chain>


$$$$
00033001.cdx
  Mrv0541 06191611392D          

 28 30  0  0  0  0            999 V2000
   -0.6426   -0.0754    0.0000 C   0  0  0  0  0  0  0  0  0  0  0  0
   -1.4676   -0.0754    0.0000 C   0  0  0  0  0  0  0  0  0  0  0  0
   -1.7226   -0.8600    0.0000 N   0  0  0  0  0  0  0  0  0  0  0  0
   -1.0551   -1.3449    0.0000 N   0  0  0  0  0  0  0  0  0  0  0  0
   -0.3877   -0.8600    0.0000 C   0  0  0  0  0  0  0  0  0  0  0  0
   -2.0510    0.5080    0.0000 C   0  0  0  0  0  0  0  0  0  0  0  0
   -1.8375    1.3049    0.0000 C   0  0  0  0  0  0  0  0  0  0  0  0
   -2.4208    1.8883    0.0000 C   0  0  0  0  0  0  0  0  0  0  0  0
   -3.2177    1.6747    0.0000 C   0  0  0  0  0  0  0  0  0  0  0  0
   -3.4313    0.8778    0.0000 C   0  0  0  0  0  0  0  0  0  0  0  0
   -2.8479    0.2945    0.0000 C   0  0  0  0  0  0  0  0  0  0  0  0
   -1.0551   -2.1699    0.0000 C   0  0  0  0  0  0  0  0  0  0  0  0
   -1.7696   -2.5824    0.0000 C   0  0  0  0  0  0  0  0  0  0  0  0
   -1.7696   -3.4074    0.0000 C   0  0  0  0  0  0  0  0  0  0  0  0
   -1.0551   -3.8199    0.0000 C   0  0  0  0  0  0  0  0  0  0  0  0
   -0.3407   -3.4074    0.0000 C   0  0  0  0  0  0  0  0  0  0  0  0
   -0.3407   -2.5824    0.0000 C   0  0  0  0  0  0  0  0  0  0  0  0
    0.3268   -1.2725    0.0000 N   0  0  0  0  0  0  0  0  0  0  0  0
    1.0413   -0.8600    0.0000 C   0  0  0  0  0  0  0  0  0  0  0  0
    1.7557   -1.2725    0.0000 C   0  0  0  0  0  0  0  0  0  0  0  0
    1.7558   -2.0975    0.0000 O   0  0  0  0  0  0  0  0  0  0  0  0
    2.4702   -0.8600    0.0000 C   0  0  0  0  0  0  0  0  0  0  0  0
    3.1847   -1.2724    0.0000 C   0  0  0  0  0  0  0  0  0  0  0  0
    3.8991   -0.8599    0.0000 C   0  0  0  0  0  0  0  0  0  0  0  0
    4.6136   -1.2724    0.0000 C   0  0  0  0  0  0  0  0  0  0  0  0
    5.3281   -0.8599    0.0000 C   0  0  0  0  0  0  0  0  0  0  0  0
    6.0426   -1.2724    0.0000 C   0  0  0  0  0  0  0  0  0  0  0  0
    6.7570   -0.8599    0.0000 C   0  0  0  0  0  0  0  0  0  0  0  0
  1  2  4  0  0  0  0
  2  3  4  0  0  0  0
  3  4  4  0  0  0  0
  4  5  4  0  0  0  0
  5  1  4  0  0  0  0
  2  6  1  0  0  0  0
  6  7  4  0  0  0  0
  7  8  4  0  0  0  0
  8  9  4  0  0  0  0
  9 10  4  0  0  0  0
 10 11  4  0  0  0  0
 11  6  4  0  0  0  0
  4 12  1  0  0  0  0
 12 13  4  0  0  0  0
 13 14  4  0  0  0  0
 14 15  4  0  0  0  0
 15 16  4  0  0  0  0
 16 17  4  0  0  0  0
 17 12  4  0  0  0  0
  5 18  1  0  0  0  0
 18 19  1  0  0  0  0
 19 20  1  0  0  0  0
 20 21  2  0  0  0  0
 20 22  1  0  0  0  0
 22 23  1  0  0  0  0
 23 24  1  0  0  0  0
 24 25  1  0  0  0  0
 25 26  1  0  0  0  0
 26 27  1  0  0  0  0
 27 28  1  0  0  0  0
M  END
> <From>
www.bindingDB.org

> <BindingDB Reactant_set_id>
330439

> <Ligand InChI>
InChI=1S/C24H29N3O/c1-2-3-4-5-12-17-22(28)19-25-24-18-23(20-13-8-6-9-14-20)26-27(24)21-15-10-7-11-16-21/h6-11,13-16,18,25H,2-5,12,17,19H2,1H3

> <Ligand InChI Key>
FCAONTDEABFDLG-UHFFFAOYSA-N

> <BindingDB MonomerID>
182853

> <BindingDB Ligand Name>
US9149492, 13

> <Target Name>
Sterol O-acyltransferase 2

> <Target Source Organism According to Curator or DataSource>


> <Ki (nM)>


> <IC50 (nM)>
 53000

> <Kd (nM)>


> <EC50 (nM)>


> <kon (M-1-s-1)>


> <koff (s-1)>


> <pH>


> <Temp (C)>


> <Curation/DataSource>
US Patent

> <Article DOI>


> <BindingDB Entry DOI>
10.7270/Q2N015BF

> <PMID>


> <PubChem AID>
aid1801692

> <Patent Number>
US9149492

> <Authors>
Chang, T; Chang, CC; Shibuya, Y; Bryleva, E; Murphy, S; Rogers, MA

> <Institution>
Dartmouth College

> <Link to Ligand in BindingDB>
http://www.bindingdb.org/bind/chemsearch/marvin/MolStructure.jsp?monomerid=182853

> <Link to Target in BindingDB>
http://www.bindingdb.org/jsp/dbsearch/PrimarySearch_ki.jsp?energyterm=kJ/mole&tag=pol&polymerid=7773&target=Sterol+O-acyltransferase+2&column=ki&startPg=0&Increment=50&submit=Search

> <Link to Ligand-Target Pair in BindingDB>
http://www.bindingdb.org/jsp/dbsearch/PrimarySearch_ki.jsp?energyterm=kJ/mole&tag=r21&monomerid=182853&enzyme=Sterol+O-acyltransferase+2&column=ki&startPg=0&Increment=50&submit=Search

> <Ligand HET ID in PDB>


> <PDB ID(s) for Ligand-Target Complex>


> <PubChem CID>
89968521

> <PubChem SID>
313634376

> <ChEBI ID of Ligand>


> <ChEMBL ID of Ligand>


> <DrugBank ID of Ligand>


> <IUPHAR_GRAC ID of Ligand>


> <KEGG ID of Ligand>


> <ZINC ID of Ligand>


> <Number of Protein Chains in Target (>1 implies a multichain complex)>
1

> <BindingDB Target Chain Sequence>
MEPGGARLRLQRTEGLGGERERQPCGDGNTETHRAPDLVQWTRHMEAVKAQLLEQAQGQLRELLDRAMREAIQSYPSQDKPLPPPPPGSLSRTQEPSLGKQKVFIIRKSLLDELMEVQHFRTIYHMFIAGLCVFIISTLAIDFIDEGRLLLEFDLLIFSFGQLPLALVTWVPMFLSTLLAPYQALRLWARGTWTQATGLGCALLAAHAVVLCALPVHVAVEHQLPPASRCVLVFEQVRFLMKSYSFLREAVPGTLRARRGEGIQAPSFSSYLYFLFCPTLIYRETYPRTPYVRWNYVAKNFAQALGCVLYACFILGRLCVPVFANMSREPFSTRALVLSILHATLPGIFMLLLIFFAFLHCWLNAFAEMLRFGDRMFYRDWWNSTSFSNYYRTWNVVVHDWLYSYVYQDGLRLLGARARGVAMLGVFLVSAVAHEYIFCFVLGFFYPVMLILFLVIGGMLNFMMHDQRTGPAWNVLMWTMLFLGQGIQVSLYCQEWYARRHCPLPQATFWGLVTPRSWSCHT

> <PDB ID(s) of Target Chain>


> <UniProt (SwissProt) Recommended Name of Target Chain>
Sterol O-acyltransferase 2

> <UniProt (SwissProt) Entry Name of Target Chain>
ACAT-2

> <UniProt (SwissProt) Primary ID of Target Chain>
O75908

> <UniProt (SwissProt) Secondary ID(s) of Target Chain>
F5H7W4 I6L9H9 Q4VB99 Q4VBA1 Q96TD4 Q9UNR2

> <UniProt (SwissProt) Alternative ID(s) of Target Chain>


> <UniProt (TrEMBL) Submitted Name of Target Chain>


> <UniProt (TrEMBL) Entry Name of Target Chain>


> <UniProt (TrEMBL) Primary ID of Target Chain>


> <UniProt (TrEMBL) Secondary ID(s) of Target Chain>


> <UniProt (TrEMBL) Alternative ID(s) of Target Chain>


$$$$

  Mrv0541 11221423472D          

 29 31  0  0  0  0            999 V2000
    2.2792   -0.0542    0.0000 C   0  0  0  0  0  0  0  0  0  0  0  0
    1.5667   -0.4667    0.0000 C   0  0  0  0  0  0  0  0  0  0  0  0
    0.8500   -0.0542    0.0000 C   0  0  0  0  0  0  0  0  0  0  0  0
    2.2792    0.7708    0.0000 C   0  0  0  0  0  0  0  0  0  0  0  0
    1.5667    1.1875    0.0000 C   0  0  0  0  0  0  0  0  0  0  0  0
    0.8542    0.7708    0.0000 C   0  0  0  0  0  0  0  0  0  0  0  0
    3.7042   -1.7125    0.0000 C   0  0  0  0  0  0  0  0  0  0  0  0
    2.9917   -0.4667    0.0000 C   0  0  0  0  0  0  0  0  0  0  0  0
    2.9917   -1.2917    0.0000 O   0  0  0  0  0  0  0  0  0  0  0  0
    0.1375   -0.4667    0.0000 C   0  0  0  0  0  0  0  0  0  0  0  0
    0.1375    1.1833    0.0000 C   0  0  0  0  0  0  0  0  0  0  0  0
    1.5625   -1.2917    0.0000 O   0  0  0  0  0  0  0  0  0  0  0  0
    4.4250   -0.4750    0.0000 C   0  0  0  0  0  0  0  0  0  0  0  0
    1.5667    2.0208    0.0000 O   0  0  0  0  0  0  0  0  0  0  0  0
    3.7125   -0.0625    0.0000 C   0  0  0  0  0  0  0  0  0  0  0  0
    4.4250   -1.3000    0.0000 O   0  0  0  0  0  0  0  0  0  0  0  0
    3.7042   -2.5375    0.0000 C   0  0  0  0  0  0  0  0  0  0  0  0
    5.1417   -0.0667    0.0000 C   0  0  0  0  0  0  0  0  0  0  0  0
   -0.5750   -0.0542    0.0000 C   0  0  0  0  0  0  0  0  0  0  0  0
   -0.5750    0.7708    0.0000 C   0  0  0  0  0  0  0  0  0  0  0  0
    0.1417   -1.2917    0.0000 O   0  0  0  0  0  0  0  0  0  0  0  0
    0.1292    2.0083    0.0000 O   0  0  0  0  0  0  0  0  0  0  0  0
    5.8542   -0.4792    0.0000 C   0  0  0  0  0  0  0  0  0  0  0  0
    5.1417    0.7583    0.0000 C   0  0  0  0  0  0  0  0  0  0  0  0
    2.9875   -2.9417    0.0000 C   0  0  0  0  0  0  0  0  0  0  0  0
    4.4167   -2.9417    0.0000 C   0  0  0  0  0  0  0  0  0  0  0  0
    4.4167   -3.7667    0.0000 C   0  0  0  0  0  0  0  0  0  0  0  0
    2.9875   -3.7667    0.0000 C   0  0  0  0  0  0  0  0  0  0  0  0
    3.7000   -4.1792    0.0000 C   0  0  0  0  0  0  0  0  0  0  0  0
  2  1  1  0  0  0  0
  3  2  2  0  0  0  0
  4  1  2  0  0  0  0
  5  4  1  0  0  0  0
  6  5  2  0  0  0  0
  7  9  1  0  0  0  0
  8  1  1  0  0  0  0
  8  9  1  0  0  0  0
 10  3  1  0  0  0  0
 11  6  1  0  0  0  0
 12  2  1  0  0  0  0
 15 13  1  4  0  0  0
 14  5  1  0  0  0  0
 15  8  2  0  0  0  0
 16  7  2  0  0  0  0
 17  7  1  0  0  0  0
 18 13  2  0  0  0  0
 19 10  2  0  0  0  0
 20 11  2  0  0  0  0
 21 10  1  0  0  0  0
 22 11  1  0  0  0  0
 23 18  1  0  0  0  0
 24 18  1  0  0  0  0
 25 17  2  0  0  0  0
 26 17  1  0  0  0  0
 27 26  2  0  0  0  0
 28 25  1  0  0  0  0
 29 27  1  0  0  0  0
  3  6  1  0  0  0  0
 19 20  1  0  0  0  0
 29 28  2  0  0  0  0
M  END
> <From>
www.bindingDB.org

> <BindingDB Reactant_set_id>
50367884

> <Ligand InChI>
InChI=1S/C23H20O6/c1-13(2)8-11-19(29-23(28)14-6-4-3-5-7-14)15-12-18(26)20-16(24)9-10-17(25)21(20)22(15)27/h3-12,24-27H,1-2H3

> <Ligand InChI Key>
HACZHUJZYGPMGX-UHFFFAOYSA-N

> <BindingDB MonomerID>
50033710

> <BindingDB Ligand Name>
(R)-1-(5,8-dihydroxy-1,4-dioxo-1,4-dihydronaphthalen-2-yl)-4-methylpent-3-enyl benzoate::Benzoic acid (R)-1-(5,8-dihydroxy-1,4-dioxo-1,4-dihydro-naphthalen-2-yl)-4-methyl-pent-3-enyl ester::CHEMBL8805

> <Target Name>
Sterol O-acyltransferase 2

> <Target Source Organism According to Curator or DataSource>


> <Ki (nM)>


> <IC50 (nM)>
 56200

> <Kd (nM)>


> <EC50 (nM)>


> <kon (M-1-s-1)>


> <koff (s-1)>


> <pH>


> <Temp (C)>


> <Curation/DataSource>
ChEMBL

> <Article DOI>
10.1016/j.bmcl.2006.11.024

> <BindingDB Entry DOI>
10.7270/Q2H70FFW

> <PMID>
17157006

> <PubChem AID>


> <Patent Number>


> <Authors>
An, S; Park, YD; Paik, YK; Jeong, TS; Lee, WS

> <Institution>
National Research Laboratory of Lipid Metabolism and Atherosclerosis

> <Link to Ligand in BindingDB>
http://www.bindingdb.org/bind/chemsearch/marvin/MolStructure.jsp?monomerid=50033710

> <Link to Target in BindingDB>
http://www.bindingdb.org/jsp/dbsearch/PrimarySearch_ki.jsp?energyterm=kJ/mole&tag=pol&polymerid=7773&target=Sterol+O-acyltransferase+2&column=ki&startPg=0&Increment=50&submit=Search

> <Link to Ligand-Target Pair in BindingDB>
http://www.bindingdb.org/jsp/dbsearch/PrimarySearch_ki.jsp?energyterm=kJ/mole&tag=r21&monomerid=50033710&enzyme=Sterol+O-acyltransferase+2&column=ki&startPg=0&Increment=50&submit=Search

> <Ligand HET ID in PDB>


> <PDB ID(s) for Ligand-Target Complex>


> <PubChem CID>
91929147

> <PubChem SID>
103941962

> <ChEBI ID of Ligand>


> <ChEMBL ID of Ligand>
CHEMBL8805

> <DrugBank ID of Ligand>


> <IUPHAR_GRAC ID of Ligand>


> <KEGG ID of Ligand>


> <ZINC ID of Ligand>
ZINC13328121

> <Number of Protein Chains in Target (>1 implies a multichain complex)>
1

> <BindingDB Target Chain Sequence>
MEPGGARLRLQRTEGLGGERERQPCGDGNTETHRAPDLVQWTRHMEAVKAQLLEQAQGQLRELLDRAMREAIQSYPSQDKPLPPPPPGSLSRTQEPSLGKQKVFIIRKSLLDELMEVQHFRTIYHMFIAGLCVFIISTLAIDFIDEGRLLLEFDLLIFSFGQLPLALVTWVPMFLSTLLAPYQALRLWARGTWTQATGLGCALLAAHAVVLCALPVHVAVEHQLPPASRCVLVFEQVRFLMKSYSFLREAVPGTLRARRGEGIQAPSFSSYLYFLFCPTLIYRETYPRTPYVRWNYVAKNFAQALGCVLYACFILGRLCVPVFANMSREPFSTRALVLSILHATLPGIFMLLLIFFAFLHCWLNAFAEMLRFGDRMFYRDWWNSTSFSNYYRTWNVVVHDWLYSYVYQDGLRLLGARARGVAMLGVFLVSAVAHEYIFCFVLGFFYPVMLILFLVIGGMLNFMMHDQRTGPAWNVLMWTMLFLGQGIQVSLYCQEWYARRHCPLPQATFWGLVTPRSWSCHT

> <PDB ID(s) of Target Chain>


> <UniProt (SwissProt) Recommended Name of Target Chain>
Sterol O-acyltransferase 2

> <UniProt (SwissProt) Entry Name of Target Chain>
ACAT-2

> <UniProt (SwissProt) Primary ID of Target Chain>
O75908

> <UniProt (SwissProt) Secondary ID(s) of Target Chain>
F5H7W4 I6L9H9 Q4VB99 Q4VBA1 Q96TD4 Q9UNR2

> <UniProt (SwissProt) Alternative ID(s) of Target Chain>


> <UniProt (TrEMBL) Submitted Name of Target Chain>


> <UniProt (TrEMBL) Entry Name of Target Chain>


> <UniProt (TrEMBL) Primary ID of Target Chain>


> <UniProt (TrEMBL) Secondary ID(s) of Target Chain>


> <UniProt (TrEMBL) Alternative ID(s) of Target Chain>


$$$$
 
  Mrv0541 11221423472D          

 26 27  0  0  0  0            999 V2000
    8.2194  -13.5875    0.0000 C   0  0  0  0  0  0  0  0  0  0  0  0
    8.2182  -14.4148    0.0000 C   0  0  0  0  0  0  0  0  0  0  0  0
    8.9331  -14.8277    0.0000 C   0  0  0  0  0  0  0  0  0  0  0  0
    8.9313  -13.1747    0.0000 C   0  0  0  0  0  0  0  0  0  0  0  0
    9.6466  -13.5838    0.0000 C   0  0  0  0  0  0  0  0  0  0  0  0
    9.6455  -14.4123    0.0000 C   0  0  0  0  0  0  0  0  0  0  0  0
   10.3584  -14.8253    0.0000 C   0  0  0  0  0  0  0  0  0  0  0  0
   11.0771  -14.4143    0.0000 C   0  0  0  0  0  0  0  0  0  0  0  0
   11.0783  -13.5858    0.0000 C   0  0  0  0  0  0  0  0  0  0  0  0
   10.3608  -13.1683    0.0000 C   0  0  0  0  0  0  0  0  0  0  0  0
   10.3608  -12.3433    0.0000 O   0  0  0  0  0  0  0  0  0  0  0  0
   10.3561  -15.6503    0.0000 O   0  0  0  0  0  0  0  0  0  0  0  0
    8.9288  -12.3497    0.0000 O   0  0  0  0  0  0  0  0  0  0  0  0
    8.9347  -15.6527    0.0000 O   0  0  0  0  0  0  0  0  0  0  0  0
   11.7904  -14.8288    0.0000 C   0  0  0  0  0  0  0  0  0  0  0  0
   11.7881  -15.6538    0.0000 O   0  0  0  0  0  0  0  0  0  0  0  0
   12.5060  -14.4183    0.0000 C   0  0  0  0  0  0  0  0  0  0  0  0
   13.2194  -14.8328    0.0000 C   0  0  0  0  0  0  0  0  0  0  0  0
   13.9350  -14.4223    0.0000 C   0  0  0  0  0  0  0  0  0  0  0  0
   14.6483  -14.8368    0.0000 C   0  0  0  0  0  0  0  0  0  0  0  0
   13.9373  -13.5973    0.0000 C   0  0  0  0  0  0  0  0  0  0  0  0
   12.5014  -16.0683    0.0000 C   0  0  0  0  0  0  0  0  0  0  0  0
   12.4991  -16.8933    0.0000 C   0  0  0  0  0  0  0  0  0  0  0  0
   13.2170  -15.6578    0.0000 O   0  0  0  0  0  0  0  0  0  0  0  0
   11.7835  -17.3038    0.0000 C   0  0  0  0  0  0  0  0  0  0  0  0
   13.2124  -17.3078    0.0000 C   0  0  0  0  0  0  0  0  0  0  0  0
  2  3  1  0  0  0  0
  4 13  1  0  0  0  0
  3  6  2  0  0  0  0
  3 14  1  0  0  0  0
  1  2  2  0  0  0  0
  8 15  1  0  0  0  0
  5  4  2  0  0  0  0
 15 16  1  0  0  0  0
  4  1  1  0  0  0  0
 15 17  2  0  0  0  0
  5 10  1  0  0  0  0
 17 18  1  4  0  0  0
  6  7  1  0  0  0  0
 18 19  2  0  0  0  0
  7  8  2  0  0  0  0
 19 20  1  0  0  0  0
  8  9  1  0  0  0  0
 19 21  1  0  0  0  0
  9 10  2  0  0  0  0
 16 22  1  0  0  0  0
  5  6  1  0  0  0  0
 22 23  1  0  0  0  0
 10 11  1  0  0  0  0
 22 24  2  0  0  0  0
 23 25  1  0  0  0  0
  7 12  1  0  0  0  0
 23 26  1  0  0  0  0
M  END
> <From>
www.bindingDB.org

> <BindingDB Reactant_set_id>
50367877

> <Ligand InChI>
InChI=1S/C20H22O6/c1-10(2)5-8-16(26-20(25)11(3)4)12-9-15(23)17-13(21)6-7-14(22)18(17)19(12)24/h5-9,11,21-24H,1-4H3

> <Ligand InChI Key>
CVESWGQNHXEYIQ-UHFFFAOYSA-N

> <BindingDB MonomerID>
50033722

> <BindingDB Ligand Name>
(R)-1-(5,8-dihydroxy-1,4-dioxo-1,4-dihydronaphthalen-2-yl)-4-methylpent-3-enyl isobutyrate::CHEMBL9416::ISOBUTYLSHIKONIN::Isobutyric acid (R)-1-(5,8-dihydroxy-1,4-dioxo-1,4-dihydro-naphthalen-2-yl)-4-methyl-pent-3-enyl ester

> <Target Name>
Sterol O-acyltransferase 2

> <Target Source Organism According to Curator or DataSource>


> <Ki (nM)>


> <IC50 (nM)>
 57500

> <Kd (nM)>


> <EC50 (nM)>


> <kon (M-1-s-1)>


> <koff (s-1)>


> <pH>


> <Temp (C)>


> <Curation/DataSource>
ChEMBL

> <Article DOI>
10.1016/j.bmcl.2006.11.024

> <BindingDB Entry DOI>
10.7270/Q2H70FFW

> <PMID>
17157006

> <PubChem AID>


> <Patent Number>


> <Authors>
An, S; Park, YD; Paik, YK; Jeong, TS; Lee, WS

> <Institution>
National Research Laboratory of Lipid Metabolism and Atherosclerosis

> <Link to Ligand in BindingDB>
http://www.bindingdb.org/bind/chemsearch/marvin/MolStructure.jsp?monomerid=50033722

> <Link to Target in BindingDB>
http://www.bindingdb.org/jsp/dbsearch/PrimarySearch_ki.jsp?energyterm=kJ/mole&tag=pol&polymerid=7773&target=Sterol+O-acyltransferase+2&column=ki&startPg=0&Increment=50&submit=Search

> <Link to Ligand-Target Pair in BindingDB>
http://www.bindingdb.org/jsp/dbsearch/PrimarySearch_ki.jsp?energyterm=kJ/mole&tag=r21&monomerid=50033722&enzyme=Sterol+O-acyltransferase+2&column=ki&startPg=0&Increment=50&submit=Search

> <Ligand HET ID in PDB>


> <PDB ID(s) for Ligand-Target Complex>


> <PubChem CID>
91929159

> <PubChem SID>
103941974

> <ChEBI ID of Ligand>


> <ChEMBL ID of Ligand>
CHEMBL9416

> <DrugBank ID of Ligand>


> <IUPHAR_GRAC ID of Ligand>


> <KEGG ID of Ligand>


> <ZINC ID of Ligand>
ZINC01702730

> <Number of Protein Chains in Target (>1 implies a multichain complex)>
1

> <BindingDB Target Chain Sequence>
MEPGGARLRLQRTEGLGGERERQPCGDGNTETHRAPDLVQWTRHMEAVKAQLLEQAQGQLRELLDRAMREAIQSYPSQDKPLPPPPPGSLSRTQEPSLGKQKVFIIRKSLLDELMEVQHFRTIYHMFIAGLCVFIISTLAIDFIDEGRLLLEFDLLIFSFGQLPLALVTWVPMFLSTLLAPYQALRLWARGTWTQATGLGCALLAAHAVVLCALPVHVAVEHQLPPASRCVLVFEQVRFLMKSYSFLREAVPGTLRARRGEGIQAPSFSSYLYFLFCPTLIYRETYPRTPYVRWNYVAKNFAQALGCVLYACFILGRLCVPVFANMSREPFSTRALVLSILHATLPGIFMLLLIFFAFLHCWLNAFAEMLRFGDRMFYRDWWNSTSFSNYYRTWNVVVHDWLYSYVYQDGLRLLGARARGVAMLGVFLVSAVAHEYIFCFVLGFFYPVMLILFLVIGGMLNFMMHDQRTGPAWNVLMWTMLFLGQGIQVSLYCQEWYARRHCPLPQATFWGLVTPRSWSCHT

> <PDB ID(s) of Target Chain>


> <UniProt (SwissProt) Recommended Name of Target Chain>
Sterol O-acyltransferase 2

> <UniProt (SwissProt) Entry Name of Target Chain>
ACAT-2

> <UniProt (SwissProt) Primary ID of Target Chain>
O75908

> <UniProt (SwissProt) Secondary ID(s) of Target Chain>
F5H7W4 I6L9H9 Q4VB99 Q4VBA1 Q96TD4 Q9UNR2

> <UniProt (SwissProt) Alternative ID(s) of Target Chain>


> <UniProt (TrEMBL) Submitted Name of Target Chain>


> <UniProt (TrEMBL) Entry Name of Target Chain>


> <UniProt (TrEMBL) Primary ID of Target Chain>


> <UniProt (TrEMBL) Secondary ID(s) of Target Chain>


> <UniProt (TrEMBL) Alternative ID(s) of Target Chain>


$$$$

  Mrv0541 11231415022D          

 41 45  0  0  0  0            999 V2000
    2.4508  -15.1927    0.0000 N   0  0  0  0  0  0  0  0  0  0  0  0
    3.1903  -16.4172    0.0000 C   0  0  0  0  0  0  0  0  0  0  0  0
    3.1724  -15.5901    0.0000 C   0  0  0  0  0  0  0  0  0  0  0  0
    3.8836  -15.1659    0.0000 C   0  0  0  0  0  0  0  0  0  0  0  0
    4.6045  -15.5675    0.0000 C   0  0  0  0  0  0  0  0  0  0  0  0
    4.6184  -16.3939    0.0000 C   0  0  0  0  0  0  0  0  0  0  0  0
   -0.0886  -14.4884    0.0000 O   0  0  0  0  0  0  0  0  0  0  0  0
   -0.3149  -15.2850    0.0000 C   0  0  0  0  0  0  0  0  0  0  0  0
    0.3685  -15.7445    0.0000 N   0  0  0  0  0  0  0  0  0  0  0  0
    1.0204  -15.2347    0.0000 C   0  0  0  0  0  0  0  0  0  0  0  0
    0.7386  -14.4560    0.0000 C   0  0  0  0  0  0  0  0  0  0  0  0
    1.7507  -15.6251    0.0000 C   0  0  0  0  0  0  0  0  0  0  0  0
   -1.0411  -15.6810    0.0000 C   0  0  0  0  0  0  0  0  0  0  0  0
   -1.7456  -15.2503    0.0000 C   0  0  0  0  0  0  0  0  0  0  0  0
   -2.4685  -15.6482    0.0000 C   0  0  0  0  0  0  0  0  0  0  0  0
   -2.4889  -16.4714    0.0000 C   0  0  0  0  0  0  0  0  0  0  0  0
   -1.7807  -16.9038    0.0000 C   0  0  0  0  0  0  0  0  0  0  0  0
   -1.0578  -16.5058    0.0000 C   0  0  0  0  0  0  0  0  0  0  0  0
    1.1468  -13.7406    0.0000 C   0  0  0  0  0  0  0  0  0  0  0  0
    1.9703  -13.7364    0.0000 F   0  0  0  0  0  0  0  0  0  0  0  0
    0.7314  -13.0295    0.0000 F   0  0  0  0  0  0  0  0  0  0  0  0
    1.4808  -12.9896    0.0000 F   0  0  0  0  0  0  0  0  0  0  0  0
    1.7776  -16.4482    0.0000 O   0  0  0  0  0  0  0  0  0  0  0  0
    5.3497  -17.6157    0.0000 C   0  0  0  0  0  0  0  0  0  0  0  0
    6.0668  -18.0140    0.0000 C   0  0  0  0  0  0  0  0  0  0  0  0
    6.7749  -17.5921    0.0000 N   0  0  0  0  0  0  0  0  0  0  0  0
    6.7613  -16.7672    0.0000 C   0  0  0  0  0  0  0  0  0  0  0  0
    6.0395  -16.3644    0.0000 C   0  0  0  0  0  0  0  0  0  0  0  0
    7.4944  -17.9930    0.0000 C   0  0  0  0  0  0  0  0  0  0  0  0
    7.5068  -18.8164    0.0000 O   0  0  0  0  0  0  0  0  0  0  0  0
    8.2012  -17.5704    0.0000 C   0  0  2  0  0  0  0  0  0  0  0  0
    8.9170  -17.9758    0.0000 C   0  0  0  0  0  0  0  0  0  0  0  0
    9.6219  -17.5567    0.0000 C   0  0  0  0  0  0  0  0  0  0  0  0
    9.6136  -16.7329    0.0000 C   0  0  2  0  0  0  0  0  0  0  0  0
    8.8944  -16.3298    0.0000 C   0  0  0  0  0  0  0  0  0  0  0  0
    8.1833  -16.7506    0.0000 C   0  0  0  0  0  0  0  0  0  0  0  0
   10.3223  -16.3115    0.0000 C   0  0  0  0  0  0  0  0  0  0  0  0
   11.0401  -16.7150    0.0000 O   0  0  0  0  0  0  0  0  0  0  0  0
   10.3129  -15.4880    0.0000 O   0  0  0  0  0  0  0  0  0  0  0  0
    3.9112  -16.8188    0.0000 C   0  0  0  0  0  0  0  0  0  0  0  0
    5.3396  -16.7923    0.0000 C   0  0  0  0  0  0  0  0  0  0  0  0
  8 13  1  0  0  0  0
  4  5  1  0  0  0  0
 11 19  1  0  0  0  0
  5  6  2  0  0  0  0
 19 20  1  0  0  0  0
  6 40  1  0  0  0  0
 19 21  1  0  0  0  0
  2 40  2  0  0  0  0
 19 22  1  0  0  0  0
  6 41  1  0  0  0  0
 12 23  2  0  0  0  0
 12  1  1  0  0  0  0
 41 24  1  0  0  0  0
  1  3  1  0  0  0  0
  2  3  1  0  0  0  0
  3  4  2  0  0  0  0
  7  8  1  0  0  0  0
 41 28  1  0  0  0  0
 24 25  1  0  0  0  0
 25 26  1  0  0  0  0
 26 27  1  0  0  0  0
 27 28  1  0  0  0  0
  8  9  2  0  0  0  0
 26 29  1  0  0  0  0
  9 10  1  0  0  0  0
 29 30  2  0  0  0  0
 10 11  2  0  0  0  0
 31 29  1  1  0  0  0
 31 32  1  0  0  0  0
  7 11  1  0  0  0  0
 10 12  1  0  0  0  0
 13 14  2  0  0  0  0
 14 15  1  0  0  0  0
 15 16  2  0  0  0  0
 31 36  1  0  0  0  0
 32 33  1  0  0  0  0
 34 33  1  0  0  0  0
 34 35  1  0  0  0  0
 35 36  1  0  0  0  0
 16 17  1  0  0  0  0
 17 18  2  0  0  0  0
 13 18  1  0  0  0  0
 37 38  1  0  0  0  0
 37 39  2  0  0  0  0
 34 37  1  6  0  0  0
M  END
> <From>
www.bindingDB.org

> <BindingDB Reactant_set_id>
50634667

> <Ligand InChI>
InChI=1S/C30H30F3N3O5/c31-30(32,33)25-24(35-27(41-25)20-4-2-1-3-5-20)26(37)34-23-12-10-18(11-13-23)19-14-16-36(17-15-19)28(38)21-6-8-22(9-7-21)29(39)40/h1-5,10-13,19,21-22H,6-9,14-17H2,(H,34,37)(H,39,40)/t21-,22-

> <Ligand InChI Key>
MARFUFVBECBSBC-HZCBDIJESA-N

> <BindingDB MonomerID>
50341782

> <BindingDB Ligand Name>
4-(4-{4-[(2-Phenyl-5-trifluoromethyloxazole-4-carbonyl)-amino]phenyl}piperidine-1-carbonyl)-trans-cyclohexanecarboxylic Acid::CHEMBL1766811

> <Target Name>
Sterol O-acyltransferase 2

> <Target Source Organism According to Curator or DataSource>


> <Ki (nM)>


> <IC50 (nM)>
 68400

> <Kd (nM)>


> <EC50 (nM)>


> <kon (M-1-s-1)>


> <koff (s-1)>


> <pH>


> <Temp (C)>


> <Curation/DataSource>
ChEMBL

> <Article DOI>
10.1021/jm101580m

> <BindingDB Entry DOI>
10.7270/Q2S182TQ

> <PMID>
21413799

> <PubChem AID>


> <Patent Number>


> <Authors>
Qian, Y; Wertheimer, SJ; Ahmad, M; Cheung, AW; Firooznia, F; Hamilton, MM; Hayden, S; Li, S; Marcopulos, N; McDermott, L; Tan, J; Yun, W; Guo, L; Pamidimukkala, A; Chen, Y; Huang, KS; Ramsey, GB; Whittard, T; Conde-Knape, K; Taub, R; Rondinone, CM; Tilley, J; Bolin, D

> <Institution>
Hoffmann-La Roche Inc

> <Link to Ligand in BindingDB>
http://www.bindingdb.org/bind/chemsearch/marvin/MolStructure.jsp?monomerid=50341782

> <Link to Target in BindingDB>
http://www.bindingdb.org/jsp/dbsearch/PrimarySearch_ki.jsp?energyterm=kJ/mole&tag=pol&polymerid=7773&target=Sterol+O-acyltransferase+2&column=ki&startPg=0&Increment=50&submit=Search

> <Link to Ligand-Target Pair in BindingDB>
http://www.bindingdb.org/jsp/dbsearch/PrimarySearch_ki.jsp?energyterm=kJ/mole&tag=r21&monomerid=50341782&enzyme=Sterol+O-acyltransferase+2&column=ki&startPg=0&Increment=50&submit=Search

> <Ligand HET ID in PDB>


> <PDB ID(s) for Ligand-Target Complex>


> <PubChem CID>
25118654

> <PubChem SID>
131344718

> <ChEBI ID of Ligand>


> <ChEMBL ID of Ligand>
CHEMBL1766811

> <DrugBank ID of Ligand>


> <IUPHAR_GRAC ID of Ligand>


> <KEGG ID of Ligand>


> <ZINC ID of Ligand>
ZINC71318820

> <Number of Protein Chains in Target (>1 implies a multichain complex)>
1

> <BindingDB Target Chain Sequence>
MEPGGARLRLQRTEGLGGERERQPCGDGNTETHRAPDLVQWTRHMEAVKAQLLEQAQGQLRELLDRAMREAIQSYPSQDKPLPPPPPGSLSRTQEPSLGKQKVFIIRKSLLDELMEVQHFRTIYHMFIAGLCVFIISTLAIDFIDEGRLLLEFDLLIFSFGQLPLALVTWVPMFLSTLLAPYQALRLWARGTWTQATGLGCALLAAHAVVLCALPVHVAVEHQLPPASRCVLVFEQVRFLMKSYSFLREAVPGTLRARRGEGIQAPSFSSYLYFLFCPTLIYRETYPRTPYVRWNYVAKNFAQALGCVLYACFILGRLCVPVFANMSREPFSTRALVLSILHATLPGIFMLLLIFFAFLHCWLNAFAEMLRFGDRMFYRDWWNSTSFSNYYRTWNVVVHDWLYSYVYQDGLRLLGARARGVAMLGVFLVSAVAHEYIFCFVLGFFYPVMLILFLVIGGMLNFMMHDQRTGPAWNVLMWTMLFLGQGIQVSLYCQEWYARRHCPLPQATFWGLVTPRSWSCHT

> <PDB ID(s) of Target Chain>


> <UniProt (SwissProt) Recommended Name of Target Chain>
Sterol O-acyltransferase 2

> <UniProt (SwissProt) Entry Name of Target Chain>
ACAT-2

> <UniProt (SwissProt) Primary ID of Target Chain>
O75908

> <UniProt (SwissProt) Secondary ID(s) of Target Chain>
F5H7W4 I6L9H9 Q4VB99 Q4VBA1 Q96TD4 Q9UNR2

> <UniProt (SwissProt) Alternative ID(s) of Target Chain>


> <UniProt (TrEMBL) Submitted Name of Target Chain>


> <UniProt (TrEMBL) Entry Name of Target Chain>


> <UniProt (TrEMBL) Primary ID of Target Chain>


> <UniProt (TrEMBL) Secondary ID(s) of Target Chain>


> <UniProt (TrEMBL) Alternative ID(s) of Target Chain>


$$$$

  Mrv0541 11221423472D          

 27 28  0  0  0  0            999 V2000
    2.8167   -3.9000    0.0000 C   0  0  0  0  0  0  0  0  0  0  0  0
    2.1000   -4.3125    0.0000 C   0  0  0  0  0  0  0  0  0  0  0  0
    1.3792   -3.8917    0.0000 C   0  0  0  0  0  0  0  0  0  0  0  0
    2.8167   -3.0667    0.0000 C   0  0  0  0  0  0  0  0  0  0  0  0
    2.1000   -2.6542    0.0000 C   0  0  0  0  0  0  0  0  0  0  0  0
    1.3875   -3.0667    0.0000 C   0  0  0  0  0  0  0  0  0  0  0  0
    3.5292   -4.3125    0.0000 C   0  0  0  0  0  0  0  0  0  0  0  0
    0.6667   -4.3125    0.0000 C   0  0  0  0  0  0  0  0  0  0  0  0
    3.5292   -5.1375    0.0000 O   0  0  0  0  0  0  0  0  0  0  0  0
    0.6667   -2.6542    0.0000 C   0  0  0  0  0  0  0  0  0  0  0  0
    2.0917   -5.1375    0.0000 O   0  0  0  0  0  0  0  0  0  0  0  0
    4.2417   -5.5542    0.0000 C   0  0  0  0  0  0  0  0  0  0  0  0
    4.9542   -4.3167    0.0000 C   0  0  0  0  0  0  0  0  0  0  0  0
    2.1000   -1.8292    0.0000 O   0  0  0  0  0  0  0  0  0  0  0  0
    4.2417   -3.9042    0.0000 C   0  0  0  0  0  0  0  0  0  0  0  0
    5.6750   -3.9042    0.0000 C   0  0  0  0  0  0  0  0  0  0  0  0
    4.9542   -5.1417    0.0000 O   0  0  0  0  0  0  0  0  0  0  0  0
   -0.0458   -3.9000    0.0000 C   0  0  0  0  0  0  0  0  0  0  0  0
   -0.0458   -3.0750    0.0000 C   0  0  0  0  0  0  0  0  0  0  0  0
    4.9500   -7.6167    0.0000 C   0  0  0  0  0  0  0  0  0  0  0  0
    5.6625   -8.0292    0.0000 C   0  0  0  0  0  0  0  0  0  0  0  0
    0.6750   -5.1375    0.0000 O   0  0  0  0  0  0  0  0  0  0  0  0
    0.6667   -1.8292    0.0000 O   0  0  0  0  0  0  0  0  0  0  0  0
    4.2375   -6.3792    0.0000 C   0  0  0  0  0  0  0  0  0  0  0  0
    4.9500   -6.7917    0.0000 C   0  0  0  0  0  0  0  0  0  0  0  0
    5.6750   -3.0792    0.0000 C   0  0  0  0  0  0  0  0  0  0  0  0
    6.3875   -4.3167    0.0000 C   0  0  0  0  0  0  0  0  0  0  0  0
  2  1  1  0  0  0  0
  3  2  2  0  0  0  0
  4  1  2  0  0  0  0
  5  4  1  0  0  0  0
  6  5  2  0  0  0  0
  7  1  1  0  0  0  0
  8  3  1  0  0  0  0
  7  9  1  0  0  0  0
 10  6  1  0  0  0  0
 11  2  1  0  0  0  0
 12  9  1  0  0  0  0
 15 13  1  4  0  0  0
 14  5  1  0  0  0  0
 15  7  2  0  0  0  0
 16 13  2  0  0  0  0
 17 12  2  0  0  0  0
 18  8  2  0  0  0  0
 19 10  2  0  0  0  0
 20 25  1  0  0  0  0
 21 20  2  0  0  0  0
 22  8  1  0  0  0  0
 23 10  1  0  0  0  0
 24 12  1  0  0  0  0
 25 24  1  0  0  0  0
 26 16  1  0  0  0  0
 27 16  1  0  0  0  0
  3  6  1  0  0  0  0
 18 19  1  0  0  0  0
M  END
> <From>
www.bindingDB.org

> <BindingDB Reactant_set_id>
50367864

> <Ligand InChI>
InChI=1S/C21H22O6/c1-4-5-6-18(25)27-17(10-7-12(2)3)13-11-16(24)19-14(22)8-9-15(23)20(19)21(13)26/h4,7-11,22-24,26H,1,5-6H2,2-3H3

> <Ligand InChI Key>
ZKCKPHSIZYXGFT-UHFFFAOYSA-N

> <BindingDB MonomerID>
50033728

> <BindingDB Ligand Name>
(R)-1-(5,8-dihydroxy-1,4-dioxo-1,4-dihydronaphthalen-2-yl)-4-methylpent-3-enyl pent-4-enoate::CHEMBL276448::Pent-4-enoic acid (R)-1-(5,8-dihydroxy-1,4-dioxo-1,4-dihydro-naphthalen-2-yl)-4-methyl-pent-3-enyl ester

> <Target Name>
Sterol O-acyltransferase 2

> <Target Source Organism According to Curator or DataSource>


> <Ki (nM)>


> <IC50 (nM)>
 71400

> <Kd (nM)>


> <EC50 (nM)>


> <kon (M-1-s-1)>


> <koff (s-1)>


> <pH>


> <Temp (C)>


> <Curation/DataSource>
ChEMBL

> <Article DOI>
10.1016/j.bmcl.2006.11.024

> <BindingDB Entry DOI>
10.7270/Q2H70FFW

> <PMID>
17157006

> <PubChem AID>


> <Patent Number>


> <Authors>
An, S; Park, YD; Paik, YK; Jeong, TS; Lee, WS

> <Institution>
National Research Laboratory of Lipid Metabolism and Atherosclerosis

> <Link to Ligand in BindingDB>
http://www.bindingdb.org/bind/chemsearch/marvin/MolStructure.jsp?monomerid=50033728

> <Link to Target in BindingDB>
http://www.bindingdb.org/jsp/dbsearch/PrimarySearch_ki.jsp?energyterm=kJ/mole&tag=pol&polymerid=7773&target=Sterol+O-acyltransferase+2&column=ki&startPg=0&Increment=50&submit=Search

> <Link to Ligand-Target Pair in BindingDB>
http://www.bindingdb.org/jsp/dbsearch/PrimarySearch_ki.jsp?energyterm=kJ/mole&tag=r21&monomerid=50033728&enzyme=Sterol+O-acyltransferase+2&column=ki&startPg=0&Increment=50&submit=Search

> <Ligand HET ID in PDB>


> <PDB ID(s) for Ligand-Target Complex>


> <PubChem CID>
91929165

> <PubChem SID>
103941980

> <ChEBI ID of Ligand>


> <ChEMBL ID of Ligand>
CHEMBL276448

> <DrugBank ID of Ligand>


> <IUPHAR_GRAC ID of Ligand>


> <KEGG ID of Ligand>


> <ZINC ID of Ligand>
ZINC13740804

> <Number of Protein Chains in Target (>1 implies a multichain complex)>
1

> <BindingDB Target Chain Sequence>
MEPGGARLRLQRTEGLGGERERQPCGDGNTETHRAPDLVQWTRHMEAVKAQLLEQAQGQLRELLDRAMREAIQSYPSQDKPLPPPPPGSLSRTQEPSLGKQKVFIIRKSLLDELMEVQHFRTIYHMFIAGLCVFIISTLAIDFIDEGRLLLEFDLLIFSFGQLPLALVTWVPMFLSTLLAPYQALRLWARGTWTQATGLGCALLAAHAVVLCALPVHVAVEHQLPPASRCVLVFEQVRFLMKSYSFLREAVPGTLRARRGEGIQAPSFSSYLYFLFCPTLIYRETYPRTPYVRWNYVAKNFAQALGCVLYACFILGRLCVPVFANMSREPFSTRALVLSILHATLPGIFMLLLIFFAFLHCWLNAFAEMLRFGDRMFYRDWWNSTSFSNYYRTWNVVVHDWLYSYVYQDGLRLLGARARGVAMLGVFLVSAVAHEYIFCFVLGFFYPVMLILFLVIGGMLNFMMHDQRTGPAWNVLMWTMLFLGQGIQVSLYCQEWYARRHCPLPQATFWGLVTPRSWSCHT

> <PDB ID(s) of Target Chain>


> <UniProt (SwissProt) Recommended Name of Target Chain>
Sterol O-acyltransferase 2

> <UniProt (SwissProt) Entry Name of Target Chain>
ACAT-2

> <UniProt (SwissProt) Primary ID of Target Chain>
O75908

> <UniProt (SwissProt) Secondary ID(s) of Target Chain>
F5H7W4 I6L9H9 Q4VB99 Q4VBA1 Q96TD4 Q9UNR2

> <UniProt (SwissProt) Alternative ID(s) of Target Chain>


> <UniProt (TrEMBL) Submitted Name of Target Chain>


> <UniProt (TrEMBL) Entry Name of Target Chain>


> <UniProt (TrEMBL) Primary ID of Target Chain>


> <UniProt (TrEMBL) Secondary ID(s) of Target Chain>


> <UniProt (TrEMBL) Alternative ID(s) of Target Chain>


$$$$
 
  Mrv0541 11221400292D          

 29 31  0  0  0  0            999 V2000
   -4.0943  -10.3669    0.0000 C   0  0  0  0  0  0  0  0  0  0  0  0
   -4.0955  -11.1944    0.0000 C   0  0  0  0  0  0  0  0  0  0  0  0
   -3.3826  -11.6073    0.0000 C   0  0  0  0  0  0  0  0  0  0  0  0
   -3.3846   -9.9541    0.0000 C   0  0  0  0  0  0  0  0  0  0  0  0
   -2.6665  -10.3629    0.0000 C   0  0  0  0  0  0  0  0  0  0  0  0
   -2.6674  -11.1965    0.0000 C   0  0  0  0  0  0  0  0  0  0  0  0
   -1.9499  -11.6117    0.0000 O   0  0  0  0  0  0  0  0  0  0  0  0
   -1.9481   -9.9446    0.0000 C   0  0  0  0  0  0  0  0  0  0  0  0
   -1.2260  -10.3645    0.0000 C   0  0  0  0  0  0  0  0  0  0  0  0
   -1.2307  -11.1948    0.0000 C   0  0  0  0  0  0  0  0  0  0  0  0
   -0.5152  -11.6122    0.0000 C   0  0  0  0  0  0  0  0  0  0  0  0
    0.2056  -11.2004    0.0000 C   0  0  0  0  0  0  0  0  0  0  0  0
    0.2062  -10.3669    0.0000 C   0  0  0  0  0  0  0  0  0  0  0  0
   -0.5099   -9.9534    0.0000 C   0  0  0  0  0  0  0  0  0  0  0  0
   -4.8090   -9.9550    0.0000 O   0  0  0  0  0  0  0  0  0  0  0  0
   -4.8106  -11.6059    0.0000 O   0  0  0  0  0  0  0  0  0  0  0  0
   -1.9483   -9.1196    0.0000 O   0  0  0  0  0  0  0  0  0  0  0  0
   -0.5088   -9.1284    0.0000 O   0  0  0  0  0  0  0  0  0  0  0  0
    0.9209   -9.9548    0.0000 C   0  0  0  0  0  0  0  0  0  0  0  0
    1.6270   -9.5374    0.0000 C   0  0  0  0  0  0  0  0  0  0  0  0
    1.3369  -10.6672    0.0000 C   0  0  0  0  0  0  0  0  0  0  0  0
    0.5091   -9.2400    0.0000 C   0  0  0  0  0  0  0  0  0  0  0  0
    2.3456   -9.9425    0.0000 C   0  0  0  0  0  0  0  0  0  0  0  0
    0.9189  -11.6148    0.0000 O   0  0  0  0  0  0  0  0  0  0  0  0
   -3.3841  -12.4323    0.0000 C   0  0  0  0  0  0  0  0  0  0  0  0
   -4.0993  -12.8436    0.0000 C   0  0  0  0  0  0  0  0  0  0  0  0
   -4.1007  -13.6684    0.0000 C   0  0  0  0  0  0  0  0  0  0  0  0
   -4.8159  -14.0797    0.0000 C   0  0  0  0  0  0  0  0  0  0  0  0
   -3.3870  -14.0822    0.0000 C   0  0  0  0  0  0  0  0  0  0  0  0
 13 14  1  0  0  0  0
 14  9  2  0  0  0  0
  1  2  2  0  0  0  0
  1 15  1  0  0  0  0
  5  8  1  0  0  0  0
  2 16  1  0  0  0  0
  6  7  1  0  0  0  0
  8 17  2  0  0  0  0
  7 10  1  0  0  0  0
 14 18  1  0  0  0  0
  9  8  1  0  0  0  0
 13 19  1  0  0  0  0
  5  4  2  0  0  0  0
 19 20  1  0  0  0  0
  4  1  1  0  0  0  0
 19 21  1  0  0  0  0
  9 10  1  0  0  0  0
 19 22  1  0  0  0  0
  5  6  1  0  0  0  0
 20 23  2  0  0  0  0
 10 11  2  0  0  0  0
 12 24  1  0  0  0  0
  3 25  1  0  0  0  0
 11 12  1  0  0  0  0
 25 26  1  0  0  0  0
  2  3  1  0  0  0  0
 26 27  2  0  0  0  0
 12 13  2  0  0  0  0
 27 28  1  0  0  0  0
  3  6  2  0  0  0  0
 27 29  1  0  0  0  0
M  END
> <From>
www.bindingDB.org

> <BindingDB Reactant_set_id>
50357581

> <Ligand InChI>
InChI=1S/C23H24O6/c1-6-23(4,5)18-14(24)10-16-17(21(18)28)20(27)13-9-15(25)19(26)12(22(13)29-16)8-7-11(2)3/h6-7,9-10,24-26,28H,1,8H2,2-5H3

> <Ligand InChI Key>
LVKPSBFBKBJJOB-UHFFFAOYSA-N

> <BindingDB MonomerID>
50175013

> <BindingDB Ligand Name>
1,3,6,7-tetrahydroxy-5-(3-methylbut-2-enyl)-2-(2-methylbut-3-en-2-yl)-9H-xanthen-9-one::CHEMBL197916::cudraxanthone L

> <Target Name>
Sterol O-acyltransferase 2

> <Target Source Organism According to Curator or DataSource>


> <Ki (nM)>


> <IC50 (nM)>
 74400

> <Kd (nM)>


> <EC50 (nM)>


> <kon (M-1-s-1)>


> <koff (s-1)>


> <pH>


> <Temp (C)>


> <Curation/DataSource>
ChEMBL

> <Article DOI>
10.1016/j.bmcl.2006.08.032

> <BindingDB Entry DOI>
10.7270/Q2PV6K0R

> <PMID>
16919944

> <PubChem AID>


> <Patent Number>


> <Authors>
Park, KH; Park, YD; Han, JM; Im, KR; Lee, BW; Jeong, IY; Jeong, TS; Lee, WS

> <Institution>
National Research Laboratory of Lipid Metabolism and Atherosclerosis

> <Link to Ligand in BindingDB>
http://www.bindingdb.org/bind/chemsearch/marvin/MolStructure.jsp?monomerid=50175013

> <Link to Target in BindingDB>
http://www.bindingdb.org/jsp/dbsearch/PrimarySearch_ki.jsp?energyterm=kJ/mole&tag=pol&polymerid=7773&target=Sterol+O-acyltransferase+2&column=ki&startPg=0&Increment=50&submit=Search

> <Link to Ligand-Target Pair in BindingDB>
http://www.bindingdb.org/jsp/dbsearch/PrimarySearch_ki.jsp?energyterm=kJ/mole&tag=r21&monomerid=50175013&enzyme=Sterol+O-acyltransferase+2&column=ki&startPg=0&Increment=50&submit=Search

> <Ligand HET ID in PDB>


> <PDB ID(s) for Ligand-Target Complex>


> <PubChem CID>
11486277

> <PubChem SID>
104060754

> <ChEBI ID of Ligand>


> <ChEMBL ID of Ligand>
CHEMBL197916

> <DrugBank ID of Ligand>


> <IUPHAR_GRAC ID of Ligand>


> <KEGG ID of Ligand>


> <ZINC ID of Ligand>
ZINC13412042

> <Number of Protein Chains in Target (>1 implies a multichain complex)>
1

> <BindingDB Target Chain Sequence>
MEPGGARLRLQRTEGLGGERERQPCGDGNTETHRAPDLVQWTRHMEAVKAQLLEQAQGQLRELLDRAMREAIQSYPSQDKPLPPPPPGSLSRTQEPSLGKQKVFIIRKSLLDELMEVQHFRTIYHMFIAGLCVFIISTLAIDFIDEGRLLLEFDLLIFSFGQLPLALVTWVPMFLSTLLAPYQALRLWARGTWTQATGLGCALLAAHAVVLCALPVHVAVEHQLPPASRCVLVFEQVRFLMKSYSFLREAVPGTLRARRGEGIQAPSFSSYLYFLFCPTLIYRETYPRTPYVRWNYVAKNFAQALGCVLYACFILGRLCVPVFANMSREPFSTRALVLSILHATLPGIFMLLLIFFAFLHCWLNAFAEMLRFGDRMFYRDWWNSTSFSNYYRTWNVVVHDWLYSYVYQDGLRLLGARARGVAMLGVFLVSAVAHEYIFCFVLGFFYPVMLILFLVIGGMLNFMMHDQRTGPAWNVLMWTMLFLGQGIQVSLYCQEWYARRHCPLPQATFWGLVTPRSWSCHT

> <PDB ID(s) of Target Chain>


> <UniProt (SwissProt) Recommended Name of Target Chain>
Sterol O-acyltransferase 2

> <UniProt (SwissProt) Entry Name of Target Chain>
ACAT-2

> <UniProt (SwissProt) Primary ID of Target Chain>
O75908

> <UniProt (SwissProt) Secondary ID(s) of Target Chain>
F5H7W4 I6L9H9 Q4VB99 Q4VBA1 Q96TD4 Q9UNR2

> <UniProt (SwissProt) Alternative ID(s) of Target Chain>


> <UniProt (TrEMBL) Submitted Name of Target Chain>


> <UniProt (TrEMBL) Entry Name of Target Chain>


> <UniProt (TrEMBL) Primary ID of Target Chain>


> <UniProt (TrEMBL) Secondary ID(s) of Target Chain>


> <UniProt (TrEMBL) Alternative ID(s) of Target Chain>


$$$$
00034001.cdx
  Mrv0541 06191611392D          

 29 31  0  0  0  0            999 V2000
   -0.9999   -0.2816    0.0000 C   0  0  0  0  0  0  0  0  0  0  0  0
   -1.8249   -0.2816    0.0000 C   0  0  0  0  0  0  0  0  0  0  0  0
   -2.0798   -1.0662    0.0000 N   0  0  0  0  0  0  0  0  0  0  0  0
   -1.4124   -1.5512    0.0000 N   0  0  0  0  0  0  0  0  0  0  0  0
   -0.7449   -1.0662    0.0000 C   0  0  0  0  0  0  0  0  0  0  0  0
   -2.4082    0.3018    0.0000 C   0  0  0  0  0  0  0  0  0  0  0  0
   -2.1947    1.0986    0.0000 C   0  0  0  0  0  0  0  0  0  0  0  0
   -2.7781    1.6820    0.0000 C   0  0  0  0  0  0  0  0  0  0  0  0
   -3.5750    1.4685    0.0000 C   0  0  0  0  0  0  0  0  0  0  0  0
   -3.7885    0.6716    0.0000 C   0  0  0  0  0  0  0  0  0  0  0  0
   -3.2051    0.0882    0.0000 C   0  0  0  0  0  0  0  0  0  0  0  0
   -1.4124   -2.3762    0.0000 C   0  0  0  0  0  0  0  0  0  0  0  0
   -2.1268   -2.7887    0.0000 C   0  0  0  0  0  0  0  0  0  0  0  0
   -2.1268   -3.6137    0.0000 C   0  0  0  0  0  0  0  0  0  0  0  0
   -1.4124   -4.0262    0.0000 C   0  0  0  0  0  0  0  0  0  0  0  0
   -0.6979   -3.6137    0.0000 C   0  0  0  0  0  0  0  0  0  0  0  0
   -0.6979   -2.7887    0.0000 C   0  0  0  0  0  0  0  0  0  0  0  0
   -0.0305   -1.4787    0.0000 N   0  0  0  0  0  0  0  0  0  0  0  0
   -0.0305   -2.3037    0.0000 C   0  0  0  0  0  0  0  0  0  0  0  0
    0.6839   -2.7162    0.0000 C   0  0  0  0  0  0  0  0  0  0  0  0
    1.3984   -2.3038    0.0000 O   0  0  0  0  0  0  0  0  0  0  0  0
    0.6839   -3.5412    0.0000 C   0  0  0  0  0  0  0  0  0  0  0  0
    1.3983   -3.9538    0.0000 C   0  0  0  0  0  0  0  0  0  0  0  0
    1.3983   -4.7788    0.0000 C   0  0  0  0  0  0  0  0  0  0  0  0
    2.1128   -5.1913    0.0000 C   0  0  0  0  0  0  0  0  0  0  0  0
    2.1127   -6.0163    0.0000 C   0  0  0  0  0  0  0  0  0  0  0  0
    2.8272   -6.4288    0.0000 C   0  0  0  0  0  0  0  0  0  0  0  0
    2.8271   -7.2538    0.0000 C   0  0  0  0  0  0  0  0  0  0  0  0
    3.5416   -7.6664    0.0000 C   0  0  0  0  0  0  0  0  0  0  0  0
  1  2  4  0  0  0  0
  2  3  4  0  0  0  0
  3  4  4  0  0  0  0
  4  5  4  0  0  0  0
  5  1  4  0  0  0  0
  2  6  1  0  0  0  0
  6  7  4  0  0  0  0
  7  8  4  0  0  0  0
  8  9  4  0  0  0  0
  9 10  4  0  0  0  0
 10 11  4  0  0  0  0
 11  6  4  0  0  0  0
  4 12  1  0  0  0  0
 12 13  4  0  0  0  0
 13 14  4  0  0  0  0
 14 15  4  0  0  0  0
 15 16  4  0  0  0  0
 16 17  4  0  0  0  0
 17 12  4  0  0  0  0
  5 18  1  0  0  0  0
 18 19  1  0  0  0  0
 19 20  1  0  0  0  0
 20 21  2  0  0  0  0
 20 22  1  0  0  0  0
 22 23  1  0  0  0  0
 23 24  1  0  0  0  0
 24 25  1  0  0  0  0
 25 26  1  0  0  0  0
 26 27  1  0  0  0  0
 27 28  1  0  0  0  0
 28 29  1  0  0  0  0
M  END
> <From>
www.bindingDB.org

> <BindingDB Reactant_set_id>
330440

> <Ligand InChI>
InChI=1S/C25H31N3O/c1-2-3-4-5-6-13-18-23(29)20-26-25-19-24(21-14-9-7-10-15-21)27-28(25)22-16-11-8-12-17-22/h7-12,14-17,19,26H,2-6,13,18,20H2,1H3

> <Ligand InChI Key>
PHTNTWBYCOJDFV-UHFFFAOYSA-N

> <BindingDB MonomerID>
182854

> <BindingDB Ligand Name>
US9149492, 14

> <Target Name>
Sterol O-acyltransferase 2

> <Target Source Organism According to Curator or DataSource>


> <Ki (nM)>


> <IC50 (nM)>
 75000

> <Kd (nM)>


> <EC50 (nM)>


> <kon (M-1-s-1)>


> <koff (s-1)>


> <pH>


> <Temp (C)>


> <Curation/DataSource>
US Patent

> <Article DOI>


> <BindingDB Entry DOI>
10.7270/Q2N015BF

> <PMID>


> <PubChem AID>
aid1801692

> <Patent Number>
US9149492

> <Authors>
Chang, T; Chang, CC; Shibuya, Y; Bryleva, E; Murphy, S; Rogers, MA

> <Institution>
Dartmouth College

> <Link to Ligand in BindingDB>
http://www.bindingdb.org/bind/chemsearch/marvin/MolStructure.jsp?monomerid=182854

> <Link to Target in BindingDB>
http://www.bindingdb.org/jsp/dbsearch/PrimarySearch_ki.jsp?energyterm=kJ/mole&tag=pol&polymerid=7773&target=Sterol+O-acyltransferase+2&column=ki&startPg=0&Increment=50&submit=Search

> <Link to Ligand-Target Pair in BindingDB>
http://www.bindingdb.org/jsp/dbsearch/PrimarySearch_ki.jsp?energyterm=kJ/mole&tag=r21&monomerid=182854&enzyme=Sterol+O-acyltransferase+2&column=ki&startPg=0&Increment=50&submit=Search

> <Ligand HET ID in PDB>


> <PDB ID(s) for Ligand-Target Complex>


> <PubChem CID>
89968522

> <PubChem SID>
313634377

> <ChEBI ID of Ligand>


> <ChEMBL ID of Ligand>


> <DrugBank ID of Ligand>


> <IUPHAR_GRAC ID of Ligand>


> <KEGG ID of Ligand>


> <ZINC ID of Ligand>


> <Number of Protein Chains in Target (>1 implies a multichain complex)>
1

> <BindingDB Target Chain Sequence>
MEPGGARLRLQRTEGLGGERERQPCGDGNTETHRAPDLVQWTRHMEAVKAQLLEQAQGQLRELLDRAMREAIQSYPSQDKPLPPPPPGSLSRTQEPSLGKQKVFIIRKSLLDELMEVQHFRTIYHMFIAGLCVFIISTLAIDFIDEGRLLLEFDLLIFSFGQLPLALVTWVPMFLSTLLAPYQALRLWARGTWTQATGLGCALLAAHAVVLCALPVHVAVEHQLPPASRCVLVFEQVRFLMKSYSFLREAVPGTLRARRGEGIQAPSFSSYLYFLFCPTLIYRETYPRTPYVRWNYVAKNFAQALGCVLYACFILGRLCVPVFANMSREPFSTRALVLSILHATLPGIFMLLLIFFAFLHCWLNAFAEMLRFGDRMFYRDWWNSTSFSNYYRTWNVVVHDWLYSYVYQDGLRLLGARARGVAMLGVFLVSAVAHEYIFCFVLGFFYPVMLILFLVIGGMLNFMMHDQRTGPAWNVLMWTMLFLGQGIQVSLYCQEWYARRHCPLPQATFWGLVTPRSWSCHT

> <PDB ID(s) of Target Chain>


> <UniProt (SwissProt) Recommended Name of Target Chain>
Sterol O-acyltransferase 2

> <UniProt (SwissProt) Entry Name of Target Chain>
ACAT-2

> <UniProt (SwissProt) Primary ID of Target Chain>
O75908

> <UniProt (SwissProt) Secondary ID(s) of Target Chain>
F5H7W4 I6L9H9 Q4VB99 Q4VBA1 Q96TD4 Q9UNR2

> <UniProt (SwissProt) Alternative ID(s) of Target Chain>


> <UniProt (TrEMBL) Submitted Name of Target Chain>


> <UniProt (TrEMBL) Entry Name of Target Chain>


> <UniProt (TrEMBL) Primary ID of Target Chain>


> <UniProt (TrEMBL) Secondary ID(s) of Target Chain>


> <UniProt (TrEMBL) Alternative ID(s) of Target Chain>


$$$$

  Mrv0541 11221400292D          

 30 32  0  0  0  0            999 V2000
   11.6069    0.2625    0.0000 C   0  0  0  0  0  0  0  0  0  0  0  0
   12.3188    0.6753    0.0000 C   0  0  0  0  0  0  0  0  0  0  0  0
   13.0341    0.2662    0.0000 C   0  0  0  0  0  0  0  0  0  0  0  0
   13.0329   -0.5669    0.0000 C   0  0  0  0  0  0  0  0  0  0  0  0
   13.7498   -0.9822    0.0000 O   0  0  0  0  0  0  0  0  0  0  0  0
   13.7522    0.6840    0.0000 C   0  0  0  0  0  0  0  0  0  0  0  0
   14.4737    0.2641    0.0000 C   0  0  0  0  0  0  0  0  0  0  0  0
   14.4724   -0.5648    0.0000 C   0  0  0  0  0  0  0  0  0  0  0  0
   15.1885   -0.9786    0.0000 C   0  0  0  0  0  0  0  0  0  0  0  0
   15.9064   -0.5646    0.0000 C   0  0  0  0  0  0  0  0  0  0  0  0
   15.9036    0.2675    0.0000 C   0  0  0  0  0  0  0  0  0  0  0  0
   15.1870    0.6775    0.0000 C   0  0  0  0  0  0  0  0  0  0  0  0
   12.3206   -0.9777    0.0000 C   0  0  0  0  0  0  0  0  0  0  0  0
   11.6026   -0.5663    0.0000 C   0  0  0  0  0  0  0  0  0  0  0  0
   10.8913   -0.9801    0.0000 O   0  0  0  0  0  0  0  0  0  0  0  0
   15.1846    1.5025    0.0000 O   0  0  0  0  0  0  0  0  0  0  0  0
   16.6214   -0.9761    0.0000 O   0  0  0  0  0  0  0  0  0  0  0  0
   15.1882   -1.8036    0.0000 C   0  0  0  0  0  0  0  0  0  0  0  0
   14.4735   -2.2158    0.0000 C   0  0  0  0  0  0  0  0  0  0  0  0
   14.4732   -3.0408    0.0000 C   0  0  0  0  0  0  0  0  0  0  0  0
   15.4000   -2.5958    0.0000 C   0  0  0  0  0  0  0  0  0  0  0  0
   15.9833   -1.5833    0.0000 C   0  0  0  0  0  0  0  0  0  0  0  0
   13.7523    1.5090    0.0000 O   0  0  0  0  0  0  0  0  0  0  0  0
   10.8931    0.6762    0.0000 O   0  0  0  0  0  0  0  0  0  0  0  0
   12.3163    1.5003    0.0000 C   0  0  0  0  0  0  0  0  0  0  0  0
   13.0295    1.9149    0.0000 C   0  0  0  0  0  0  0  0  0  0  0  0
   13.0271    2.7399    0.0000 C   0  0  0  0  0  0  0  0  0  0  0  0
   13.7403    3.1546    0.0000 C   0  0  0  0  0  0  0  0  0  0  0  0
   12.3114    3.1503    0.0000 C   0  0  0  0  0  0  0  0  0  0  0  0
   17.3353   -0.5626    0.0000 C   0  0  0  0  0  0  0  0  0  0  0  0
  4  5  1  0  0  0  0
  5  8  1  0  0  0  0
 14 15  1  0  0  0  0
  7  6  1  0  0  0  0
 12 16  1  0  0  0  0
  2  1  1  0  0  0  0
 10 17  1  0  0  0  0
  3  4  1  0  0  0  0
  9 18  1  0  0  0  0
  7  8  1  0  0  0  0
 18 19  1  0  0  0  0
  1 14  2  0  0  0  0
 19 20  2  0  0  0  0
  8  9  2  0  0  0  0
 18 21  1  0  0  0  0
 13  4  2  0  0  0  0
 18 22  1  0  0  0  0
  9 10  1  0  0  0  0
  6 23  2  0  0  0  0
  1 24  1  0  0  0  0
 10 11  2  0  0  0  0
  2 25  1  0  0  0  0
  3  2  2  0  0  0  0
 25 26  1  0  0  0  0
 11 12  1  0  0  0  0
 26 27  2  0  0  0  0
 12  7  2  0  0  0  0
 27 28  1  0  0  0  0
 13 14  1  0  0  0  0
 27 29  1  0  0  0  0
  3  6  1  0  0  0  0
 17 30  1  0  0  0  0
M  END
> <From>
www.bindingDB.org

> <BindingDB Reactant_set_id>
50357571

> <Ligand InChI>
InChI=1S/C24H26O6/c1-7-24(4,5)20-17(29-6)10-14(25)19-22(28)18-13(9-8-12(2)3)21(27)15(26)11-16(18)30-23(19)20/h7-8,10-11,25-27H,1,9H2,2-6H3

> <Ligand InChI Key>
UIIGEZZURHDEDK-UHFFFAOYSA-N

> <BindingDB MonomerID>
50175019

> <BindingDB Ligand Name>
2,3,8-trihydroxy-6-methoxy-1-(3-methylbut-2-enyl)-5-(2-methylbut-3-en-2-yl)-9H-xanthen-9-one::CHEMBL425926::cudraxanthone D

> <Target Name>
Sterol O-acyltransferase 2

> <Target Source Organism According to Curator or DataSource>


> <Ki (nM)>


> <IC50 (nM)>
 75200

> <Kd (nM)>


> <EC50 (nM)>


> <kon (M-1-s-1)>


> <koff (s-1)>


> <pH>


> <Temp (C)>


> <Curation/DataSource>
ChEMBL

> <Article DOI>
10.1016/j.bmcl.2006.08.032

> <BindingDB Entry DOI>
10.7270/Q2PV6K0R

> <PMID>
16919944

> <PubChem AID>


> <Patent Number>


> <Authors>
Park, KH; Park, YD; Han, JM; Im, KR; Lee, BW; Jeong, IY; Jeong, TS; Lee, WS

> <Institution>
National Research Laboratory of Lipid Metabolism and Atherosclerosis

> <Link to Ligand in BindingDB>
http://www.bindingdb.org/bind/chemsearch/marvin/MolStructure.jsp?monomerid=50175019

> <Link to Target in BindingDB>
http://www.bindingdb.org/jsp/dbsearch/PrimarySearch_ki.jsp?energyterm=kJ/mole&tag=pol&polymerid=7773&target=Sterol+O-acyltransferase+2&column=ki&startPg=0&Increment=50&submit=Search

> <Link to Ligand-Target Pair in BindingDB>
http://www.bindingdb.org/jsp/dbsearch/PrimarySearch_ki.jsp?energyterm=kJ/mole&tag=r21&monomerid=50175019&enzyme=Sterol+O-acyltransferase+2&column=ki&startPg=0&Increment=50&submit=Search

> <Ligand HET ID in PDB>


> <PDB ID(s) for Ligand-Target Complex>


> <PubChem CID>
11611248

> <PubChem SID>
104060760

> <ChEBI ID of Ligand>


> <ChEMBL ID of Ligand>
CHEMBL425926

> <DrugBank ID of Ligand>


> <IUPHAR_GRAC ID of Ligand>


> <KEGG ID of Ligand>


> <ZINC ID of Ligand>
ZINC13411981

> <Number of Protein Chains in Target (>1 implies a multichain complex)>
1

> <BindingDB Target Chain Sequence>
MEPGGARLRLQRTEGLGGERERQPCGDGNTETHRAPDLVQWTRHMEAVKAQLLEQAQGQLRELLDRAMREAIQSYPSQDKPLPPPPPGSLSRTQEPSLGKQKVFIIRKSLLDELMEVQHFRTIYHMFIAGLCVFIISTLAIDFIDEGRLLLEFDLLIFSFGQLPLALVTWVPMFLSTLLAPYQALRLWARGTWTQATGLGCALLAAHAVVLCALPVHVAVEHQLPPASRCVLVFEQVRFLMKSYSFLREAVPGTLRARRGEGIQAPSFSSYLYFLFCPTLIYRETYPRTPYVRWNYVAKNFAQALGCVLYACFILGRLCVPVFANMSREPFSTRALVLSILHATLPGIFMLLLIFFAFLHCWLNAFAEMLRFGDRMFYRDWWNSTSFSNYYRTWNVVVHDWLYSYVYQDGLRLLGARARGVAMLGVFLVSAVAHEYIFCFVLGFFYPVMLILFLVIGGMLNFMMHDQRTGPAWNVLMWTMLFLGQGIQVSLYCQEWYARRHCPLPQATFWGLVTPRSWSCHT

> <PDB ID(s) of Target Chain>


> <UniProt (SwissProt) Recommended Name of Target Chain>
Sterol O-acyltransferase 2

> <UniProt (SwissProt) Entry Name of Target Chain>
ACAT-2

> <UniProt (SwissProt) Primary ID of Target Chain>
O75908

> <UniProt (SwissProt) Secondary ID(s) of Target Chain>
F5H7W4 I6L9H9 Q4VB99 Q4VBA1 Q96TD4 Q9UNR2

> <UniProt (SwissProt) Alternative ID(s) of Target Chain>


> <UniProt (TrEMBL) Submitted Name of Target Chain>


> <UniProt (TrEMBL) Entry Name of Target Chain>


> <UniProt (TrEMBL) Primary ID of Target Chain>


> <UniProt (TrEMBL) Secondary ID(s) of Target Chain>


> <UniProt (TrEMBL) Alternative ID(s) of Target Chain>


$$$$

  Mrv0541 11221401292D          

 26 29  0  0  0  0            999 V2000
    4.3388  -14.8743    0.0000 C   0  0  0  0  0  0  0  0  0  0  0  0
    4.3376  -15.7014    0.0000 C   0  0  0  0  0  0  0  0  0  0  0  0
    5.0523  -16.1141    0.0000 C   0  0  0  0  0  0  0  0  0  0  0  0
    5.7655  -14.8707    0.0000 C   0  0  0  0  0  0  0  0  0  0  0  0
    5.7663  -15.6972    0.0000 C   0  0  0  0  0  0  0  0  0  0  0  0
    6.4814  -16.1081    0.0000 O   0  0  0  0  0  0  0  0  0  0  0  0
    3.6244  -14.4621    0.0000 C   0  0  0  0  0  0  0  0  0  0  0  0
    3.6224  -13.6320    0.0000 C   0  0  0  0  0  0  0  0  0  0  0  0
    2.9122  -13.2198    0.0000 C   0  0  0  0  0  0  0  0  0  0  0  0
    2.9087  -14.8713    0.0000 O   0  0  0  0  0  0  0  0  0  0  0  0
    2.1938  -14.4546    0.0000 C   0  0  0  0  0  0  0  0  0  0  0  0
    2.1987  -13.6307    0.0000 C   0  0  0  0  0  0  0  0  0  0  0  0
    1.4888  -13.2164    0.0000 C   0  0  0  0  0  0  0  0  0  0  0  0
    1.4831  -14.8624    0.0000 C   0  0  0  0  0  0  0  0  0  0  0  0
    2.9136  -12.3951    0.0000 O   0  0  0  0  0  0  0  0  0  0  0  0
    1.4927  -12.3917    0.0000 O   0  0  0  0  0  0  0  0  0  0  0  0
    3.6231  -16.1132    0.0000 O   0  0  0  0  0  0  0  0  0  0  0  0
    0.7727  -14.4517    0.0000 C   0  0  0  0  0  0  0  0  0  0  0  0
    0.7767  -13.6248    0.0000 C   0  0  0  0  0  0  0  0  0  0  0  0
    0.0667  -13.2100    0.0000 C   0  0  0  0  0  0  0  0  0  0  0  0
   -0.6522  -13.6176    0.0000 C   0  0  0  0  0  0  0  0  0  0  0  0
   -0.6564  -14.4446    0.0000 C   0  0  0  0  0  0  0  0  0  0  0  0
    0.0584  -14.8640    0.0000 O   0  0  0  0  0  0  0  0  0  0  0  0
   -0.6623  -15.2659    0.0000 C   0  0  0  0  0  0  0  0  0  0  0  0
    5.0511  -14.4565    0.0000 C   0  0  0  0  0  0  0  0  0  0  0  0
   -1.3718  -14.0298    0.0000 C   0  0  0  0  0  0  0  0  0  0  0  0
 14 11  2  0  0  0  0
  3  5  1  0  0  0  0
  9 15  2  0  0  0  0
  7  1  1  0  0  0  0
 13 16  1  0  0  0  0
  7  8  2  0  0  0  0
  2 17  1  0  0  0  0
 18 19  2  0  0  0  0
  4 25  1  0  0  0  0
 25  1  2  0  0  0  0
  1  2  1  0  0  0  0
  7 10  1  0  0  0  0
  8  9  1  0  0  0  0
  9 12  1  0  0  0  0
 18 23  1  0  0  0  0
 19 20  1  0  0  0  0
 20 21  2  0  0  0  0
 21 22  1  0  0  0  0
 22 23  1  0  0  0  0
 11 10  1  0  0  0  0
 22 24  1  0  0  0  0
  4  5  2  0  0  0  0
 11 12  1  0  0  0  0
  2  3  2  0  0  0  0
 12 13  2  0  0  0  0
 13 19  1  0  0  0  0
  5  6  1  0  0  0  0
 18 14  1  0  0  0  0
 22 26  1  0  0  0  0
M  END
> <From>
www.bindingDB.org

> <BindingDB Reactant_set_id>
50357587

> <Ligand InChI>
InChI=1S/C20H16O6/c1-20(2)6-5-12-16(26-20)9-17-18(19(12)24)14(23)8-15(25-17)11-4-3-10(21)7-13(11)22/h3-9,21-22,24H,1-2H3

> <Ligand InChI Key>
LXEJWVDCRDILQQ-UHFFFAOYSA-N

> <BindingDB MonomerID>
50193721

> <BindingDB Ligand Name>
2-(2,4-dihydroxy-phenyl)-5-hydroxy-8,8-dimethyl-8H-pyrano[3,2-g]chromen-4-one::2-(2,4-dihydroxyphenyl)-5-hydroxy-8,8-dimethylpyrano[3,2-g]chromen-4(8H)-one::CHEMBL221908

> <Target Name>
Sterol O-acyltransferase 2

> <Target Source Organism According to Curator or DataSource>


> <Ki (nM)>


> <IC50 (nM)>
 77600

> <Kd (nM)>


> <EC50 (nM)>


> <kon (M-1-s-1)>


> <koff (s-1)>


> <pH>


> <Temp (C)>


> <Curation/DataSource>
ChEMBL

> <Article DOI>
10.1016/j.bmcl.2006.08.032

> <BindingDB Entry DOI>
10.7270/Q2PV6K0R

> <PMID>
16919944

> <PubChem AID>


> <Patent Number>


> <Authors>
Park, KH; Park, YD; Han, JM; Im, KR; Lee, BW; Jeong, IY; Jeong, TS; Lee, WS

> <Institution>
National Research Laboratory of Lipid Metabolism and Atherosclerosis

> <Link to Ligand in BindingDB>
http://www.bindingdb.org/bind/chemsearch/marvin/MolStructure.jsp?monomerid=50193721

> <Link to Target in BindingDB>
http://www.bindingdb.org/jsp/dbsearch/PrimarySearch_ki.jsp?energyterm=kJ/mole&tag=pol&polymerid=7773&target=Sterol+O-acyltransferase+2&column=ki&startPg=0&Increment=50&submit=Search

> <Link to Ligand-Target Pair in BindingDB>
http://www.bindingdb.org/jsp/dbsearch/PrimarySearch_ki.jsp?energyterm=kJ/mole&tag=r21&monomerid=50193721&enzyme=Sterol+O-acyltransferase+2&column=ki&startPg=0&Increment=50&submit=Search

> <Ligand HET ID in PDB>


> <PDB ID(s) for Ligand-Target Complex>


> <PubChem CID>
15224382

> <PubChem SID>
104076120

> <ChEBI ID of Ligand>


> <ChEMBL ID of Ligand>
CHEMBL221908

> <DrugBank ID of Ligand>


> <IUPHAR_GRAC ID of Ligand>


> <KEGG ID of Ligand>


> <ZINC ID of Ligand>
ZINC13414436

> <Number of Protein Chains in Target (>1 implies a multichain complex)>
1

> <BindingDB Target Chain Sequence>
MEPGGARLRLQRTEGLGGERERQPCGDGNTETHRAPDLVQWTRHMEAVKAQLLEQAQGQLRELLDRAMREAIQSYPSQDKPLPPPPPGSLSRTQEPSLGKQKVFIIRKSLLDELMEVQHFRTIYHMFIAGLCVFIISTLAIDFIDEGRLLLEFDLLIFSFGQLPLALVTWVPMFLSTLLAPYQALRLWARGTWTQATGLGCALLAAHAVVLCALPVHVAVEHQLPPASRCVLVFEQVRFLMKSYSFLREAVPGTLRARRGEGIQAPSFSSYLYFLFCPTLIYRETYPRTPYVRWNYVAKNFAQALGCVLYACFILGRLCVPVFANMSREPFSTRALVLSILHATLPGIFMLLLIFFAFLHCWLNAFAEMLRFGDRMFYRDWWNSTSFSNYYRTWNVVVHDWLYSYVYQDGLRLLGARARGVAMLGVFLVSAVAHEYIFCFVLGFFYPVMLILFLVIGGMLNFMMHDQRTGPAWNVLMWTMLFLGQGIQVSLYCQEWYARRHCPLPQATFWGLVTPRSWSCHT

> <PDB ID(s) of Target Chain>


> <UniProt (SwissProt) Recommended Name of Target Chain>
Sterol O-acyltransferase 2

> <UniProt (SwissProt) Entry Name of Target Chain>
ACAT-2

> <UniProt (SwissProt) Primary ID of Target Chain>
O75908

> <UniProt (SwissProt) Secondary ID(s) of Target Chain>
F5H7W4 I6L9H9 Q4VB99 Q4VBA1 Q96TD4 Q9UNR2

> <UniProt (SwissProt) Alternative ID(s) of Target Chain>


> <UniProt (TrEMBL) Submitted Name of Target Chain>


> <UniProt (TrEMBL) Entry Name of Target Chain>


> <UniProt (TrEMBL) Primary ID of Target Chain>


> <UniProt (TrEMBL) Secondary ID(s) of Target Chain>


> <UniProt (TrEMBL) Alternative ID(s) of Target Chain>


$$$$

  Mrv0541 11221423472D          

 27 28  0  0  0  0            999 V2000
    2.8167   -3.9000    0.0000 C   0  0  0  0  0  0  0  0  0  0  0  0
    2.1000   -4.3125    0.0000 C   0  0  0  0  0  0  0  0  0  0  0  0
    1.3792   -3.8917    0.0000 C   0  0  0  0  0  0  0  0  0  0  0  0
    2.8167   -3.0667    0.0000 C   0  0  0  0  0  0  0  0  0  0  0  0
    2.1000   -2.6542    0.0000 C   0  0  0  0  0  0  0  0  0  0  0  0
    1.3875   -3.0667    0.0000 C   0  0  0  0  0  0  0  0  0  0  0  0
    3.5292   -4.3125    0.0000 C   0  0  0  0  0  0  0  0  0  0  0  0
    0.6667   -4.3125    0.0000 C   0  0  0  0  0  0  0  0  0  0  0  0
    3.5292   -5.1375    0.0000 O   0  0  0  0  0  0  0  0  0  0  0  0
    0.6667   -2.6542    0.0000 C   0  0  0  0  0  0  0  0  0  0  0  0
    2.0917   -5.1375    0.0000 O   0  0  0  0  0  0  0  0  0  0  0  0
    4.2417   -5.5542    0.0000 C   0  0  0  0  0  0  0  0  0  0  0  0
    4.9542   -4.3167    0.0000 C   0  0  0  0  0  0  0  0  0  0  0  0
    2.1000   -1.8292    0.0000 O   0  0  0  0  0  0  0  0  0  0  0  0
    4.2417   -3.9042    0.0000 C   0  0  0  0  0  0  0  0  0  0  0  0
    5.6750   -3.9042    0.0000 C   0  0  0  0  0  0  0  0  0  0  0  0
    4.9542   -5.1417    0.0000 O   0  0  0  0  0  0  0  0  0  0  0  0
   -0.0458   -3.9000    0.0000 C   0  0  0  0  0  0  0  0  0  0  0  0
   -0.0458   -3.0750    0.0000 C   0  0  0  0  0  0  0  0  0  0  0  0
    0.6750   -5.1375    0.0000 O   0  0  0  0  0  0  0  0  0  0  0  0
    0.6667   -1.8292    0.0000 O   0  0  0  0  0  0  0  0  0  0  0  0
    4.2375   -6.3792    0.0000 C   0  0  0  0  0  0  0  0  0  0  0  0
    6.3875   -4.3167    0.0000 C   0  0  0  0  0  0  0  0  0  0  0  0
    5.6750   -3.0792    0.0000 C   0  0  0  0  0  0  0  0  0  0  0  0
    4.9500   -6.7917    0.0000 C   0  0  0  0  0  0  0  0  0  0  0  0
    4.9500   -7.6167    0.0000 C   0  0  0  0  0  0  0  0  0  0  0  0
    5.6625   -8.0292    0.0000 C   0  0  0  0  0  0  0  0  0  0  0  0
  2  1  1  0  0  0  0
  3  2  2  0  0  0  0
  4  1  2  0  0  0  0
  5  4  1  0  0  0  0
  6  5  2  0  0  0  0
  7  1  1  0  0  0  0
  8  3  1  0  0  0  0
  7  9  1  0  0  0  0
 10  6  1  0  0  0  0
 11  2  1  0  0  0  0
 12  9  1  0  0  0  0
 15 13  1  4  0  0  0
 14  5  1  0  0  0  0
 15  7  2  0  0  0  0
 16 13  2  0  0  0  0
 17 12  2  0  0  0  0
 18  8  2  0  0  0  0
 19 10  2  0  0  0  0
 20  8  1  0  0  0  0
 21 10  1  0  0  0  0
 22 12  1  0  0  0  0
 23 16  1  0  0  0  0
 24 16  1  0  0  0  0
 25 22  1  0  0  0  0
 26 25  1  0  0  0  0
 27 26  1  0  0  0  0
  3  6  1  0  0  0  0
 18 19  1  0  0  0  0
M  END
> <From>
www.bindingDB.org

> <BindingDB Reactant_set_id>
50367865

> <Ligand InChI>
InChI=1S/C21H24O6/c1-4-5-6-18(25)27-17(10-7-12(2)3)13-11-16(24)19-14(22)8-9-15(23)20(19)21(13)26/h7-11,22-24,26H,4-6H2,1-3H3

> <Ligand InChI Key>
PKEBLNZSJAASJI-UHFFFAOYSA-N

> <BindingDB MonomerID>
50033733

> <BindingDB Ligand Name>
(R)-1-(5,8-dihydroxy-1,4-dioxo-1,4-dihydronaphthalen-2-yl)-4-methylpent-3-enyl pentanoate::CHEMBL9499::Pentanoic acid (R)-1-(5,8-dihydroxy-1,4-dioxo-1,4-dihydro-naphthalen-2-yl)-4-methyl-pent-3-enyl ester

> <Target Name>
Sterol O-acyltransferase 2

> <Target Source Organism According to Curator or DataSource>


> <Ki (nM)>


> <IC50 (nM)>
 84500

> <Kd (nM)>


> <EC50 (nM)>


> <kon (M-1-s-1)>


> <koff (s-1)>


> <pH>


> <Temp (C)>


> <Curation/DataSource>
ChEMBL

> <Article DOI>
10.1016/j.bmcl.2006.11.024

> <BindingDB Entry DOI>
10.7270/Q2H70FFW

> <PMID>
17157006

> <PubChem AID>


> <Patent Number>


> <Authors>
An, S; Park, YD; Paik, YK; Jeong, TS; Lee, WS

> <Institution>
National Research Laboratory of Lipid Metabolism and Atherosclerosis

> <Link to Ligand in BindingDB>
http://www.bindingdb.org/bind/chemsearch/marvin/MolStructure.jsp?monomerid=50033733

> <Link to Target in BindingDB>
http://www.bindingdb.org/jsp/dbsearch/PrimarySearch_ki.jsp?energyterm=kJ/mole&tag=pol&polymerid=7773&target=Sterol+O-acyltransferase+2&column=ki&startPg=0&Increment=50&submit=Search

> <Link to Ligand-Target Pair in BindingDB>
http://www.bindingdb.org/jsp/dbsearch/PrimarySearch_ki.jsp?energyterm=kJ/mole&tag=r21&monomerid=50033733&enzyme=Sterol+O-acyltransferase+2&column=ki&startPg=0&Increment=50&submit=Search

> <Ligand HET ID in PDB>


> <PDB ID(s) for Ligand-Target Complex>


> <PubChem CID>
91929169

> <PubChem SID>
103941985

> <ChEBI ID of Ligand>


> <ChEMBL ID of Ligand>
CHEMBL9499

> <DrugBank ID of Ligand>


> <IUPHAR_GRAC ID of Ligand>


> <KEGG ID of Ligand>


> <ZINC ID of Ligand>
ZINC13740803

> <Number of Protein Chains in Target (>1 implies a multichain complex)>
1

> <BindingDB Target Chain Sequence>
MEPGGARLRLQRTEGLGGERERQPCGDGNTETHRAPDLVQWTRHMEAVKAQLLEQAQGQLRELLDRAMREAIQSYPSQDKPLPPPPPGSLSRTQEPSLGKQKVFIIRKSLLDELMEVQHFRTIYHMFIAGLCVFIISTLAIDFIDEGRLLLEFDLLIFSFGQLPLALVTWVPMFLSTLLAPYQALRLWARGTWTQATGLGCALLAAHAVVLCALPVHVAVEHQLPPASRCVLVFEQVRFLMKSYSFLREAVPGTLRARRGEGIQAPSFSSYLYFLFCPTLIYRETYPRTPYVRWNYVAKNFAQALGCVLYACFILGRLCVPVFANMSREPFSTRALVLSILHATLPGIFMLLLIFFAFLHCWLNAFAEMLRFGDRMFYRDWWNSTSFSNYYRTWNVVVHDWLYSYVYQDGLRLLGARARGVAMLGVFLVSAVAHEYIFCFVLGFFYPVMLILFLVIGGMLNFMMHDQRTGPAWNVLMWTMLFLGQGIQVSLYCQEWYARRHCPLPQATFWGLVTPRSWSCHT

> <PDB ID(s) of Target Chain>


> <UniProt (SwissProt) Recommended Name of Target Chain>
Sterol O-acyltransferase 2

> <UniProt (SwissProt) Entry Name of Target Chain>
ACAT-2

> <UniProt (SwissProt) Primary ID of Target Chain>
O75908

> <UniProt (SwissProt) Secondary ID(s) of Target Chain>
F5H7W4 I6L9H9 Q4VB99 Q4VBA1 Q96TD4 Q9UNR2

> <UniProt (SwissProt) Alternative ID(s) of Target Chain>


> <UniProt (TrEMBL) Submitted Name of Target Chain>


> <UniProt (TrEMBL) Entry Name of Target Chain>


> <UniProt (TrEMBL) Primary ID of Target Chain>


> <UniProt (TrEMBL) Secondary ID(s) of Target Chain>


> <UniProt (TrEMBL) Alternative ID(s) of Target Chain>


$$$$

  Mrv0541 11221401292D          

 31 33  0  0  1  0            999 V2000
   11.7194   -0.0750    0.0000 C   0  0  0  0  0  0  0  0  0  0  0  0
   11.7182   -0.9023    0.0000 C   0  0  0  0  0  0  0  0  0  0  0  0
   12.4331   -1.3152    0.0000 C   0  0  0  0  0  0  0  0  0  0  0  0
   12.4313    0.3378    0.0000 C   0  0  0  0  0  0  0  0  0  0  0  0
   13.1466   -0.0713    0.0000 C   0  0  0  0  0  0  0  0  0  0  0  0
   13.1474   -0.8982    0.0000 C   0  0  0  0  0  0  0  0  0  0  0  0
   11.0048    0.3374    0.0000 C   0  0  2  0  0  0  0  0  0  0  0  0
   11.0028    1.1678    0.0000 C   0  0  0  0  0  0  0  0  0  0  0  0
   10.2923    1.5800    0.0000 C   0  0  0  0  0  0  0  0  0  0  0  0
   10.2888   -0.0719    0.0000 O   0  0  0  0  0  0  0  0  0  0  0  0
    9.5737    0.3449    0.0000 C   0  0  0  0  0  0  0  0  0  0  0  0
    9.5786    1.1690    0.0000 C   0  0  0  0  0  0  0  0  0  0  0  0
    8.8685    1.5835    0.0000 C   0  0  0  0  0  0  0  0  0  0  0  0
    8.1530    1.1750    0.0000 C   0  0  0  0  0  0  0  0  0  0  0  0
    8.1521    0.3477    0.0000 C   0  0  0  0  0  0  0  0  0  0  0  0
    8.8628   -0.0631    0.0000 C   0  0  0  0  0  0  0  0  0  0  0  0
   10.2937    2.4050    0.0000 O   0  0  0  0  0  0  0  0  0  0  0  0
    8.8724    2.4085    0.0000 O   0  0  0  0  0  0  0  0  0  0  0  0
    7.4397    1.5896    0.0000 C   0  0  0  0  0  0  0  0  0  0  0  0
    7.4422    2.4146    0.0000 C   0  0  0  0  0  0  0  0  0  0  0  0
    6.7289    2.8292    0.0000 C   0  0  0  0  0  0  0  0  0  0  0  0
    6.7313    3.6542    0.0000 C   0  0  0  0  0  0  0  0  0  0  0  0
    6.0132    2.4188    0.0000 C   0  0  0  0  0  0  0  0  0  0  0  0
    7.4373   -0.0643    0.0000 O   0  0  0  0  0  0  0  0  0  0  0  0
   11.0034   -1.3143    0.0000 O   0  0  0  0  0  0  0  0  0  0  0  0
   13.8601    0.3430    0.0000 C   0  0  0  0  0  0  0  0  0  0  0  0
   14.5756   -0.0677    0.0000 C   0  0  0  0  0  0  0  0  0  0  0  0
   15.2890    0.3465    0.0000 C   0  0  0  0  0  0  0  0  0  0  0  0
   16.0045   -0.0642    0.0000 C   0  0  0  0  0  0  0  0  0  0  0  0
   15.2869    1.1715    0.0000 C   0  0  0  0  0  0  0  0  0  0  0  0
   13.8631   -1.3086    0.0000 O   0  0  0  0  0  0  0  0  0  0  0  0
 14 15  2  0  0  0  0
  7  8  1  0  0  0  0
 15 16  1  0  0  0  0
 16 11  2  0  0  0  0
  1  2  2  0  0  0  0
  9 17  2  0  0  0  0
  5  4  2  0  0  0  0
 13 18  1  0  0  0  0
  4  1  1  0  0  0  0
 14 19  1  0  0  0  0
  7 10  1  0  0  0  0
 19 20  1  0  0  0  0
  8  9  1  0  0  0  0
 20 21  2  0  0  0  0
  9 12  1  0  0  0  0
 21 22  1  0  0  0  0
 11 10  1  0  0  0  0
 21 23  1  0  0  0  0
 15 24  1  0  0  0  0
  2  3  1  0  0  0  0
  2 25  1  0  0  0  0
 11 12  1  0  0  0  0
  5 26  1  0  0  0  0
  5  6  1  0  0  0  0
 26 27  1  0  0  0  0
 12 13  2  0  0  0  0
 27 28  2  0  0  0  0
  3  6  2  0  0  0  0
 28 29  1  0  0  0  0
 13 14  1  0  0  0  0
 28 30  1  0  0  0  0
  7  1  1  1  0  0  0
  6 31  1  0  0  0  0
M  END
> <From>
www.bindingDB.org

> <BindingDB Reactant_set_id>
50357586

> <Ligand InChI>
InChI=1S/C25H28O6/c1-13(2)5-7-15-9-17(19(27)10-18(15)26)22-12-21(29)24-23(31-22)11-20(28)16(25(24)30)8-6-14(3)4/h5-6,9-11,22,26-28,30H,7-8,12H2,1-4H3/t22-/m0/s1

> <Ligand InChI Key>
XLHAGJGNSIEVFB-QFIPXVFZSA-N

> <BindingDB MonomerID>
50193723

> <BindingDB Ligand Name>
(S)-2-(2,4-dihydroxy-5-(3-methylbut-2-enyl)phenyl)-5,7-dihydroxy-6-(3-methylbut-2-enyl)chroman-4-one::CHEMBL218741

> <Target Name>
Sterol O-acyltransferase 2

> <Target Source Organism According to Curator or DataSource>


> <Ki (nM)>


> <IC50 (nM)>
 89600

> <Kd (nM)>


> <EC50 (nM)>


> <kon (M-1-s-1)>


> <koff (s-1)>


> <pH>


> <Temp (C)>


> <Curation/DataSource>
ChEMBL

> <Article DOI>
10.1016/j.bmcl.2006.08.032

> <BindingDB Entry DOI>
10.7270/Q2PV6K0R

> <PMID>
16919944

> <PubChem AID>


> <Patent Number>


> <Authors>
Park, KH; Park, YD; Han, JM; Im, KR; Lee, BW; Jeong, IY; Jeong, TS; Lee, WS

> <Institution>
National Research Laboratory of Lipid Metabolism and Atherosclerosis

> <Link to Ligand in BindingDB>
http://www.bindingdb.org/bind/chemsearch/marvin/MolStructure.jsp?monomerid=50193723

> <Link to Target in BindingDB>
http://www.bindingdb.org/jsp/dbsearch/PrimarySearch_ki.jsp?energyterm=kJ/mole&tag=pol&polymerid=7773&target=Sterol+O-acyltransferase+2&column=ki&startPg=0&Increment=50&submit=Search

> <Link to Ligand-Target Pair in BindingDB>
http://www.bindingdb.org/jsp/dbsearch/PrimarySearch_ki.jsp?energyterm=kJ/mole&tag=r21&monomerid=50193723&enzyme=Sterol+O-acyltransferase+2&column=ki&startPg=0&Increment=50&submit=Search

> <Ligand HET ID in PDB>


> <PDB ID(s) for Ligand-Target Complex>


> <PubChem CID>
44419446

> <PubChem SID>
104076122

> <ChEBI ID of Ligand>


> <ChEMBL ID of Ligand>
CHEMBL218741

> <DrugBank ID of Ligand>


> <IUPHAR_GRAC ID of Ligand>


> <KEGG ID of Ligand>


> <ZINC ID of Ligand>
ZINC14727507

> <Number of Protein Chains in Target (>1 implies a multichain complex)>
1

> <BindingDB Target Chain Sequence>
MEPGGARLRLQRTEGLGGERERQPCGDGNTETHRAPDLVQWTRHMEAVKAQLLEQAQGQLRELLDRAMREAIQSYPSQDKPLPPPPPGSLSRTQEPSLGKQKVFIIRKSLLDELMEVQHFRTIYHMFIAGLCVFIISTLAIDFIDEGRLLLEFDLLIFSFGQLPLALVTWVPMFLSTLLAPYQALRLWARGTWTQATGLGCALLAAHAVVLCALPVHVAVEHQLPPASRCVLVFEQVRFLMKSYSFLREAVPGTLRARRGEGIQAPSFSSYLYFLFCPTLIYRETYPRTPYVRWNYVAKNFAQALGCVLYACFILGRLCVPVFANMSREPFSTRALVLSILHATLPGIFMLLLIFFAFLHCWLNAFAEMLRFGDRMFYRDWWNSTSFSNYYRTWNVVVHDWLYSYVYQDGLRLLGARARGVAMLGVFLVSAVAHEYIFCFVLGFFYPVMLILFLVIGGMLNFMMHDQRTGPAWNVLMWTMLFLGQGIQVSLYCQEWYARRHCPLPQATFWGLVTPRSWSCHT

> <PDB ID(s) of Target Chain>


> <UniProt (SwissProt) Recommended Name of Target Chain>
Sterol O-acyltransferase 2

> <UniProt (SwissProt) Entry Name of Target Chain>
ACAT-2

> <UniProt (SwissProt) Primary ID of Target Chain>
O75908

> <UniProt (SwissProt) Secondary ID(s) of Target Chain>
F5H7W4 I6L9H9 Q4VB99 Q4VBA1 Q96TD4 Q9UNR2

> <UniProt (SwissProt) Alternative ID(s) of Target Chain>


> <UniProt (TrEMBL) Submitted Name of Target Chain>


> <UniProt (TrEMBL) Entry Name of Target Chain>


> <UniProt (TrEMBL) Primary ID of Target Chain>


> <UniProt (TrEMBL) Secondary ID(s) of Target Chain>


> <UniProt (TrEMBL) Alternative ID(s) of Target Chain>


$$$$

  Mrv0541 11211416172D          

 35 37  0  0  1  0            999 V2000
    1.0167   -0.0875    0.0000 C   0  0  0  0  0  0  0  0  0  0  0  0
    0.3042    0.3250    0.0000 C   0  0  1  0  0  0  0  0  0  0  0  0
    0.3000    1.1500    0.0000 C   0  0  0  0  0  0  0  0  0  0  0  0
   -0.4083   -0.0917    0.0000 N   0  0  0  0  0  0  0  0  0  0  0  0
    1.0167   -0.9125    0.0000 C   0  0  0  0  0  0  0  0  0  0  0  0
   -1.1250    0.3125    0.0000 C   0  0  0  0  0  0  0  0  0  0  0  0
   -4.6958   -0.1042    0.0000 C   0  0  0  0  0  0  0  0  0  0  0  0
    1.0125    1.5625    0.0000 O   0  0  0  0  0  0  0  0  0  0  0  0
   -4.6958   -0.9375    0.0000 C   0  0  0  0  0  0  0  0  0  0  0  0
   -3.9833    0.3083    0.0000 C   0  0  0  0  0  0  0  0  0  0  0  0
   -0.4125    1.5583    0.0000 O   0  0  0  0  0  0  0  0  0  0  0  0
    0.3125   -1.3250    0.0000 O   0  0  0  0  0  0  0  0  0  0  0  0
   -1.1250    1.1375    0.0000 O   0  0  0  0  0  0  0  0  0  0  0  0
    1.7375   -1.3250    0.0000 O   0  0  0  0  0  0  0  0  0  0  0  0
   -3.9833   -1.3500    0.0000 C   0  0  0  0  0  0  0  0  0  0  0  0
   -3.2625   -0.1042    0.0000 C   0  0  0  0  0  0  0  0  0  0  0  0
   -1.8458   -0.0917    0.0000 C   0  0  0  0  0  0  0  0  0  0  0  0
    1.0125    2.3958    0.0000 C   0  0  0  0  0  0  0  0  0  0  0  0
   -5.4083    0.3000    0.0000 O   0  0  0  0  0  0  0  0  0  0  0  0
    1.7417   -2.1500    0.0000 C   0  0  0  0  0  0  0  0  0  0  0  0
   -3.2625   -0.9375    0.0000 C   0  0  0  0  0  0  0  0  0  0  0  0
   -5.4125   -1.3500    0.0000 O   0  0  0  0  0  0  0  0  0  0  0  0
   -2.5500    0.3125    0.0000 C   0  0  0  0  0  0  0  0  0  0  0  0
    1.7167    2.8000    0.0000 C   0  0  0  0  0  0  0  0  0  0  0  0
    2.4542   -2.5542    0.0000 C   0  0  0  0  0  0  0  0  0  0  0  0
    1.7167    3.6250    0.0000 C   0  0  0  0  0  0  0  0  0  0  0  0
    2.4542   -3.3792    0.0000 C   0  0  0  0  0  0  0  0  0  0  0  0
    3.1542   -2.1375    0.0000 C   0  0  0  0  0  0  0  0  0  0  0  0
    2.4375    2.3958    0.0000 C   0  0  0  0  0  0  0  0  0  0  0  0
    3.8792   -2.5417    0.0000 C   0  0  0  0  0  0  0  0  0  0  0  0
    3.1500    2.8083    0.0000 C   0  0  0  0  0  0  0  0  0  0  0  0
    2.4167    4.0292    0.0000 C   0  0  0  0  0  0  0  0  0  0  0  0
    3.1750   -3.7875    0.0000 C   0  0  0  0  0  0  0  0  0  0  0  0
    3.8875   -3.3750    0.0000 C   0  0  0  0  0  0  0  0  0  0  0  0
    3.1500    3.6333    0.0000 C   0  0  0  0  0  0  0  0  0  0  0  0
  2  1  1  0  0  0  0
  2  3  1  0  0  0  0
  2  4  1  6  0  0  0
  5  1  1  0  0  0  0
  6  4  1  0  0  0  0
  7 10  2  0  0  0  0
  8  3  1  0  0  0  0
  9 15  2  0  0  0  0
 10 16  1  0  0  0  0
 11  3  2  0  0  0  0
 12  5  2  0  0  0  0
 13  6  2  0  0  0  0
 14  5  1  0  0  0  0
 15 21  1  0  0  0  0
 16 23  1  0  0  0  0
 17  6  1  0  0  0  0
 18  8  1  0  0  0  0
 19  7  1  0  0  0  0
 20 14  1  0  0  0  0
 21 16  2  0  0  0  0
 22  9  1  0  0  0  0
 23 17  1  0  0  0  0
 24 18  1  0  0  0  0
 25 20  1  0  0  0  0
 26 24  2  0  0  0  0
 27 25  2  0  0  0  0
 28 25  1  0  0  0  0
 29 24  1  0  0  0  0
 30 28  2  0  0  0  0
 31 29  2  0  0  0  0
 32 26  1  0  0  0  0
 33 27  1  0  0  0  0
 34 30  1  0  0  0  0
 35 31  1  0  0  0  0
 33 34  2  0  0  0  0
 32 35  2  0  0  0  0
  7  9  1  0  0  0  0
M  END
> <From>
www.bindingDB.org

> <BindingDB Reactant_set_id>
50278755

> <Ligand InChI>
InChI=1S/C27H27NO7/c29-23-13-11-19(15-24(23)30)12-14-25(31)28-22(27(33)35-18-21-9-5-2-6-10-21)16-26(32)34-17-20-7-3-1-4-8-20/h1-11,13,15,22,29-30H,12,14,16-18H2,(H,28,31)/t22-/m0/s1

> <Ligand InChI Key>
SNEUAEKNRYBOTP-QFIPXVFZSA-N

> <BindingDB MonomerID>
50151701

> <BindingDB Ligand Name>
(S)-2-[3-(3,4-Dihydroxy-phenyl)-propionylamino]-succinic acid dibenzyl ester::CHEMBL360400

> <Target Name>
Sterol O-acyltransferase 2

> <Target Source Organism According to Curator or DataSource>


> <Ki (nM)>


> <IC50 (nM)>
 95000

> <Kd (nM)>


> <EC50 (nM)>


> <kon (M-1-s-1)>


> <koff (s-1)>


> <pH>


> <Temp (C)>


> <Curation/DataSource>
ChEMBL

> <Article DOI>
10.1016/j.bmcl.2004.06.101

> <BindingDB Entry DOI>
10.7270/Q2K93701

> <PMID>
15324887

> <PubChem AID>


> <Patent Number>


> <Authors>
Lee, S; Han, JM; Kim, H; Kim, E; Jeong, TS; Lee, WS; Cho, KH

> <Institution>
National Research Laboratory of Lipid Metabolism and Atherosclerosis

> <Link to Ligand in BindingDB>
http://www.bindingdb.org/bind/chemsearch/marvin/MolStructure.jsp?monomerid=50151701

> <Link to Target in BindingDB>
http://www.bindingdb.org/jsp/dbsearch/PrimarySearch_ki.jsp?energyterm=kJ/mole&tag=pol&polymerid=7773&target=Sterol+O-acyltransferase+2&column=ki&startPg=0&Increment=50&submit=Search

> <Link to Ligand-Target Pair in BindingDB>
http://www.bindingdb.org/jsp/dbsearch/PrimarySearch_ki.jsp?energyterm=kJ/mole&tag=r21&monomerid=50151701&enzyme=Sterol+O-acyltransferase+2&column=ki&startPg=0&Increment=50&submit=Search

> <Ligand HET ID in PDB>


> <PDB ID(s) for Ligand-Target Complex>


> <PubChem CID>
35026724

> <PubChem SID>
104039870

> <ChEBI ID of Ligand>


> <ChEMBL ID of Ligand>
CHEMBL360400

> <DrugBank ID of Ligand>


> <IUPHAR_GRAC ID of Ligand>


> <KEGG ID of Ligand>


> <ZINC ID of Ligand>
ZINC27645103

> <Number of Protein Chains in Target (>1 implies a multichain complex)>
1

> <BindingDB Target Chain Sequence>
MEPGGARLRLQRTEGLGGERERQPCGDGNTETHRAPDLVQWTRHMEAVKAQLLEQAQGQLRELLDRAMREAIQSYPSQDKPLPPPPPGSLSRTQEPSLGKQKVFIIRKSLLDELMEVQHFRTIYHMFIAGLCVFIISTLAIDFIDEGRLLLEFDLLIFSFGQLPLALVTWVPMFLSTLLAPYQALRLWARGTWTQATGLGCALLAAHAVVLCALPVHVAVEHQLPPASRCVLVFEQVRFLMKSYSFLREAVPGTLRARRGEGIQAPSFSSYLYFLFCPTLIYRETYPRTPYVRWNYVAKNFAQALGCVLYACFILGRLCVPVFANMSREPFSTRALVLSILHATLPGIFMLLLIFFAFLHCWLNAFAEMLRFGDRMFYRDWWNSTSFSNYYRTWNVVVHDWLYSYVYQDGLRLLGARARGVAMLGVFLVSAVAHEYIFCFVLGFFYPVMLILFLVIGGMLNFMMHDQRTGPAWNVLMWTMLFLGQGIQVSLYCQEWYARRHCPLPQATFWGLVTPRSWSCHT

> <PDB ID(s) of Target Chain>


> <UniProt (SwissProt) Recommended Name of Target Chain>
Sterol O-acyltransferase 2

> <UniProt (SwissProt) Entry Name of Target Chain>
ACAT-2

> <UniProt (SwissProt) Primary ID of Target Chain>
O75908

> <UniProt (SwissProt) Secondary ID(s) of Target Chain>
F5H7W4 I6L9H9 Q4VB99 Q4VBA1 Q96TD4 Q9UNR2

> <UniProt (SwissProt) Alternative ID(s) of Target Chain>


> <UniProt (TrEMBL) Submitted Name of Target Chain>


> <UniProt (TrEMBL) Entry Name of Target Chain>


> <UniProt (TrEMBL) Primary ID of Target Chain>


> <UniProt (TrEMBL) Secondary ID(s) of Target Chain>


> <UniProt (TrEMBL) Alternative ID(s) of Target Chain>


$$$$
00035001.cdx
  Mrv0541 06191611392D          

 28 30  0  0  0  0            999 V2000
   -2.4288    0.8905    0.0000 C   0  0  0  0  0  0  0  0  0  0  0  0
   -3.2538    0.8905    0.0000 C   0  0  0  0  0  0  0  0  0  0  0  0
   -3.5088    0.1058    0.0000 N   0  0  0  0  0  0  0  0  0  0  0  0
   -2.8413   -0.3791    0.0000 N   0  0  0  0  0  0  0  0  0  0  0  0
   -2.1739    0.1058    0.0000 C   0  0  0  0  0  0  0  0  0  0  0  0
   -3.8372    1.4738    0.0000 C   0  0  0  0  0  0  0  0  0  0  0  0
   -3.6237    2.2707    0.0000 C   0  0  0  0  0  0  0  0  0  0  0  0
   -4.2070    2.8541    0.0000 C   0  0  0  0  0  0  0  0  0  0  0  0
   -5.0039    2.6406    0.0000 C   0  0  0  0  0  0  0  0  0  0  0  0
   -5.2174    1.8437    0.0000 C   0  0  0  0  0  0  0  0  0  0  0  0
   -4.6341    1.2603    0.0000 C   0  0  0  0  0  0  0  0  0  0  0  0
   -2.8413   -1.2041    0.0000 C   0  0  0  0  0  0  0  0  0  0  0  0
   -3.5558   -1.6166    0.0000 C   0  0  0  0  0  0  0  0  0  0  0  0
   -3.5558   -2.4416    0.0000 C   0  0  0  0  0  0  0  0  0  0  0  0
   -2.8413   -2.8541    0.0000 C   0  0  0  0  0  0  0  0  0  0  0  0
   -2.1269   -2.4416    0.0000 C   0  0  0  0  0  0  0  0  0  0  0  0
   -2.1269   -1.6166    0.0000 C   0  0  0  0  0  0  0  0  0  0  0  0
   -1.4594   -0.3067    0.0000 N   0  0  0  0  0  0  0  0  0  0  0  0
   -1.4594   -1.1317    0.0000 C   0  0  0  0  0  0  0  0  0  0  0  0
   -0.7449   -1.5442    0.0000 C   0  0  0  0  0  0  0  0  0  0  0  0
   -0.7449   -2.3692    0.0000 C   0  0  0  0  0  0  0  0  0  0  0  0
   -0.0304   -2.7817    0.0000 C   0  0  0  0  0  0  0  0  0  0  0  0
   -0.0304   -3.6067    0.0000 C   0  0  0  0  0  0  0  0  0  0  0  0
    0.6841   -4.0192    0.0000 C   0  0  0  0  0  0  0  0  0  0  0  0
    0.6841   -4.8442    0.0000 C   0  0  0  0  0  0  0  0  0  0  0  0
    1.3986   -5.2566    0.0000 C   0  0  0  0  0  0  0  0  0  0  0  0
    1.3986   -6.0816    0.0000 C   0  0  0  0  0  0  0  0  0  0  0  0
    2.1131   -6.4941    0.0000 C   0  0  0  0  0  0  0  0  0  0  0  0
  1  2  4  0  0  0  0
  2  3  4  0  0  0  0
  3  4  4  0  0  0  0
  4  5  4  0  0  0  0
  5  1  4  0  0  0  0
  2  6  1  0  0  0  0
  6  7  4  0  0  0  0
  7  8  4  0  0  0  0
  8  9  4  0  0  0  0
  9 10  4  0  0  0  0
 10 11  4  0  0  0  0
 11  6  4  0  0  0  0
  4 12  1  0  0  0  0
 12 13  4  0  0  0  0
 13 14  4  0  0  0  0
 14 15  4  0  0  0  0
 15 16  4  0  0  0  0
 16 17  4  0  0  0  0
 17 12  4  0  0  0  0
  5 18  1  0  0  0  0
 18 19  1  0  0  0  0
 19 20  1  0  0  0  0
 20 21  1  0  0  0  0
 21 22  1  0  0  0  0
 22 23  1  0  0  0  0
 23 24  1  0  0  0  0
 24 25  1  0  0  0  0
 25 26  1  0  0  0  0
 26 27  1  0  0  0  0
 27 28  1  0  0  0  0
M  END
> <From>
www.bindingDB.org

> <BindingDB Reactant_set_id>
330441

> <Ligand InChI>
InChI=1S/C25H33N3/c1-2-3-4-5-6-7-8-15-20-26-25-21-24(22-16-11-9-12-17-22)27-28(25)23-18-13-10-14-19-23/h9-14,16-19,21,26H,2-8,15,20H2,1H3

> <Ligand InChI Key>
CJKKEVCKJUHCKP-UHFFFAOYSA-N

> <BindingDB MonomerID>
182855

> <BindingDB Ligand Name>
US9149492, 16

> <Target Name>
Sterol O-acyltransferase 2

> <Target Source Organism According to Curator or DataSource>


> <Ki (nM)>


> <IC50 (nM)>
 97000

> <Kd (nM)>


> <EC50 (nM)>


> <kon (M-1-s-1)>


> <koff (s-1)>


> <pH>


> <Temp (C)>


> <Curation/DataSource>
US Patent

> <Article DOI>


> <BindingDB Entry DOI>
10.7270/Q2N015BF

> <PMID>


> <PubChem AID>
aid1801692

> <Patent Number>
US9149492

> <Authors>
Chang, T; Chang, CC; Shibuya, Y; Bryleva, E; Murphy, S; Rogers, MA

> <Institution>
Dartmouth College

> <Link to Ligand in BindingDB>
http://www.bindingdb.org/bind/chemsearch/marvin/MolStructure.jsp?monomerid=182855

> <Link to Target in BindingDB>
http://www.bindingdb.org/jsp/dbsearch/PrimarySearch_ki.jsp?energyterm=kJ/mole&tag=pol&polymerid=7773&target=Sterol+O-acyltransferase+2&column=ki&startPg=0&Increment=50&submit=Search

> <Link to Ligand-Target Pair in BindingDB>
http://www.bindingdb.org/jsp/dbsearch/PrimarySearch_ki.jsp?energyterm=kJ/mole&tag=r21&monomerid=182855&enzyme=Sterol+O-acyltransferase+2&column=ki&startPg=0&Increment=50&submit=Search

> <Ligand HET ID in PDB>


> <PDB ID(s) for Ligand-Target Complex>


> <PubChem CID>
89968523

> <PubChem SID>
313634378

> <ChEBI ID of Ligand>


> <ChEMBL ID of Ligand>


> <DrugBank ID of Ligand>


> <IUPHAR_GRAC ID of Ligand>


> <KEGG ID of Ligand>


> <ZINC ID of Ligand>


> <Number of Protein Chains in Target (>1 implies a multichain complex)>
1

> <BindingDB Target Chain Sequence>
MEPGGARLRLQRTEGLGGERERQPCGDGNTETHRAPDLVQWTRHMEAVKAQLLEQAQGQLRELLDRAMREAIQSYPSQDKPLPPPPPGSLSRTQEPSLGKQKVFIIRKSLLDELMEVQHFRTIYHMFIAGLCVFIISTLAIDFIDEGRLLLEFDLLIFSFGQLPLALVTWVPMFLSTLLAPYQALRLWARGTWTQATGLGCALLAAHAVVLCALPVHVAVEHQLPPASRCVLVFEQVRFLMKSYSFLREAVPGTLRARRGEGIQAPSFSSYLYFLFCPTLIYRETYPRTPYVRWNYVAKNFAQALGCVLYACFILGRLCVPVFANMSREPFSTRALVLSILHATLPGIFMLLLIFFAFLHCWLNAFAEMLRFGDRMFYRDWWNSTSFSNYYRTWNVVVHDWLYSYVYQDGLRLLGARARGVAMLGVFLVSAVAHEYIFCFVLGFFYPVMLILFLVIGGMLNFMMHDQRTGPAWNVLMWTMLFLGQGIQVSLYCQEWYARRHCPLPQATFWGLVTPRSWSCHT

> <PDB ID(s) of Target Chain>


> <UniProt (SwissProt) Recommended Name of Target Chain>
Sterol O-acyltransferase 2

> <UniProt (SwissProt) Entry Name of Target Chain>
ACAT-2

> <UniProt (SwissProt) Primary ID of Target Chain>
O75908

> <UniProt (SwissProt) Secondary ID(s) of Target Chain>
F5H7W4 I6L9H9 Q4VB99 Q4VBA1 Q96TD4 Q9UNR2

> <UniProt (SwissProt) Alternative ID(s) of Target Chain>


> <UniProt (TrEMBL) Submitted Name of Target Chain>


> <UniProt (TrEMBL) Entry Name of Target Chain>


> <UniProt (TrEMBL) Primary ID of Target Chain>


> <UniProt (TrEMBL) Secondary ID(s) of Target Chain>


> <UniProt (TrEMBL) Alternative ID(s) of Target Chain>


$$$$
 
  Mrv0541 11221409282D          

 18 20  0  0  0  0            999 V2000
   13.3583    1.5390    0.0000 C   0  0  0  0  0  0  0  0  0  0  0  0
   13.3583    0.7140    0.0000 C   0  0  0  0  0  0  0  0  0  0  0  0
   14.0712    0.3098    0.0000 C   0  0  0  0  0  0  0  0  0  0  0  0
   14.0712    1.9558    0.0000 C   0  0  0  0  0  0  0  0  0  0  0  0
   14.7797    1.5390    0.0000 C   0  0  1  0  0  0  0  0  0  0  0  0
   14.7813    0.7140    0.0000 C   0  0  1  0  0  0  0  0  0  0  0  0
   15.4926    0.3083    0.0000 C   0  0  0  0  0  0  0  0  0  0  0  0
   15.4894    1.9543    0.0000 C   0  0  0  0  0  0  0  0  0  0  0  0
   16.2035    1.5417    0.0000 C   0  0  0  0  0  0  0  0  0  0  0  0
   16.2089    0.7151    0.0000 C   0  0  1  0  0  0  0  0  0  0  0  0
   16.9969    0.4626    0.0000 O   0  0  0  0  0  0  0  0  0  0  0  0
   17.4782    1.1327    0.0000 C   0  0  0  0  0  0  0  0  0  0  0  0
   16.9881    1.8003    0.0000 C   0  0  0  0  0  0  0  0  0  0  0  0
   17.2428    2.5868    0.0000 C   0  0  0  0  0  0  0  0  0  0  0  0
   14.7791   -0.1049    0.0000 C   0  0  0  0  0  0  0  0  0  0  0  0
   14.0712    2.7808    0.0000 C   0  0  0  0  0  0  0  0  0  0  0  0
   18.3033    1.1381    0.0000 O   0  0  0  0  0  0  0  0  0  0  0  0
   16.4166   -0.0796    0.0000 O   0  0  0  0  0  0  0  0  0  0  0  0
  1  2  1  0  0  0  0
  1  4  1  0  0  0  0
  2  3  1  0  0  0  0
  6  3  1  0  0  0  0
  5  4  1  6  0  0  0
  5  6  1  0  0  0  0
  5  8  1  0  0  0  0
  6  7  1  0  0  0  0
 10  7  1  0  0  0  0
  9  8  1  0  0  0  0
 10  9  1  0  0  0  0
 10 11  1  0  0  0  0
 11 12  1  0  0  0  0
 12 13  1  0  0  0  0
 13  9  2  0  0  0  0
 13 14  1  0  0  0  0
  6 15  1  6  0  0  0
  4 16  2  0  0  0  0
 12 17  2  0  0  0  0
 10 18  1  6  0  0  0
M  END
> <From>
www.bindingDB.org

> <BindingDB Reactant_set_id>
51346967

> <Ligand InChI>
InChI=1S/C15H20O3/c1-9-5-4-6-14(3)8-15(17)12(7-11(9)14)10(2)13(16)18-15/h11,17H,1,4-8H2,2-3H3/t11-,14+,15-/m0/s1

> <Ligand InChI Key>
FBMORZZOJSDNRQ-GLQYFDAESA-N

> <BindingDB MonomerID>
50241945

> <BindingDB Ligand Name>
Atractylenolide III::CHEMBL486961

> <Target Name>
Sterol O-acyltransferase 2

> <Target Source Organism According to Curator or DataSource>


> <Ki (nM)>


> <IC50 (nM)>
 100700

> <Kd (nM)>


> <EC50 (nM)>


> <kon (M-1-s-1)>


> <koff (s-1)>


> <pH>


> <Temp (C)>


> <Curation/DataSource>
ChEMBL

> <Article DOI>


> <BindingDB Entry DOI>
10.7270/Q2G73J95

> <PMID>
32035699

> <PubChem AID>


> <Patent Number>


> <Authors>
Nur, EAA; Ohshiro, T; Kobayashi, K; Wu, J; Wahyudin, E; Zhang, H; Hayashi, F; Kawagishi, H; Tomoda, H

> <Institution>
Kitasato University

> <Link to Ligand in BindingDB>
http://www.bindingdb.org/bind/chemsearch/marvin/MolStructure.jsp?monomerid=50241945

> <Link to Target in BindingDB>
http://www.bindingdb.org/jsp/dbsearch/PrimarySearch_ki.jsp?energyterm=kJ/mole&tag=pol&polymerid=7773&target=Sterol+O-acyltransferase+2&column=ki&startPg=0&Increment=50&submit=Search

> <Link to Ligand-Target Pair in BindingDB>
http://www.bindingdb.org/jsp/dbsearch/PrimarySearch_ki.jsp?energyterm=kJ/mole&tag=r21&monomerid=50241945&enzyme=Sterol+O-acyltransferase+2&column=ki&startPg=0&Increment=50&submit=Search

> <Ligand HET ID in PDB>


> <PDB ID(s) for Ligand-Target Complex>


> <PubChem CID>
155948

> <PubChem SID>
104098916

> <ChEBI ID of Ligand>
69958

> <ChEMBL ID of Ligand>
CHEMBL486961

> <DrugBank ID of Ligand>


> <IUPHAR_GRAC ID of Ligand>


> <KEGG ID of Ligand>


> <ZINC ID of Ligand>
ZINC05373275

> <Number of Protein Chains in Target (>1 implies a multichain complex)>
1

> <BindingDB Target Chain Sequence>
MEPGGARLRLQRTEGLGGERERQPCGDGNTETHRAPDLVQWTRHMEAVKAQLLEQAQGQLRELLDRAMREAIQSYPSQDKPLPPPPPGSLSRTQEPSLGKQKVFIIRKSLLDELMEVQHFRTIYHMFIAGLCVFIISTLAIDFIDEGRLLLEFDLLIFSFGQLPLALVTWVPMFLSTLLAPYQALRLWARGTWTQATGLGCALLAAHAVVLCALPVHVAVEHQLPPASRCVLVFEQVRFLMKSYSFLREAVPGTLRARRGEGIQAPSFSSYLYFLFCPTLIYRETYPRTPYVRWNYVAKNFAQALGCVLYACFILGRLCVPVFANMSREPFSTRALVLSILHATLPGIFMLLLIFFAFLHCWLNAFAEMLRFGDRMFYRDWWNSTSFSNYYRTWNVVVHDWLYSYVYQDGLRLLGARARGVAMLGVFLVSAVAHEYIFCFVLGFFYPVMLILFLVIGGMLNFMMHDQRTGPAWNVLMWTMLFLGQGIQVSLYCQEWYARRHCPLPQATFWGLVTPRSWSCHT

> <PDB ID(s) of Target Chain>


> <UniProt (SwissProt) Recommended Name of Target Chain>
Sterol O-acyltransferase 2

> <UniProt (SwissProt) Entry Name of Target Chain>
ACAT-2

> <UniProt (SwissProt) Primary ID of Target Chain>
O75908

> <UniProt (SwissProt) Secondary ID(s) of Target Chain>
F5H7W4 I6L9H9 Q4VB99 Q4VBA1 Q96TD4 Q9UNR2

> <UniProt (SwissProt) Alternative ID(s) of Target Chain>


> <UniProt (TrEMBL) Submitted Name of Target Chain>


> <UniProt (TrEMBL) Entry Name of Target Chain>


> <UniProt (TrEMBL) Primary ID of Target Chain>


> <UniProt (TrEMBL) Secondary ID(s) of Target Chain>


> <UniProt (TrEMBL) Alternative ID(s) of Target Chain>


$$$$

  Mrv0541 11221400362D          

 37 39  0  0  0  0            999 V2000
   -4.2366  -25.2731    0.0000 C   0  0  0  0  0  0  0  0  0  0  0  0
   -4.2380  -26.1006    0.0000 C   0  0  0  0  0  0  0  0  0  0  0  0
   -3.5249  -26.5136    0.0000 C   0  0  0  0  0  0  0  0  0  0  0  0
   -2.8056  -26.1002    0.0000 C   0  0  0  0  0  0  0  0  0  0  0  0
   -3.5269  -24.8602    0.0000 C   0  0  0  0  0  0  0  0  0  0  0  0
   -3.5309  -24.0352    0.0000 N   0  0  0  0  0  0  0  0  0  0  0  0
   -4.9515  -24.8611    0.0000 F   0  0  0  0  0  0  0  0  0  0  0  0
   -3.5263  -27.3386    0.0000 F   0  0  0  0  0  0  0  0  0  0  0  0
   -2.8183  -23.6194    0.0000 C   0  0  0  0  0  0  0  0  0  0  0  0
   -2.8221  -22.7944    0.0000 O   0  0  0  0  0  0  0  0  0  0  0  0
   -2.1018  -24.0285    0.0000 N   0  0  0  0  0  0  0  0  0  0  0  0
   -1.3893  -23.6127    0.0000 C   0  0  0  0  0  0  0  0  0  0  0  0
   -2.0980  -24.8535    0.0000 C   0  0  0  0  0  0  0  0  0  0  0  0
   -2.8106  -25.2694    0.0000 C   0  0  0  0  0  0  0  0  0  0  0  0
   -1.3816  -25.2627    0.0000 C   0  0  0  0  0  0  0  0  0  0  0  0
   -1.3778  -26.0877    0.0000 C   0  0  0  0  0  0  0  0  0  0  0  0
   -0.6662  -26.4940    0.0000 C   0  0  0  0  0  0  0  0  0  0  0  0
    0.0543  -26.0921    0.0000 C   0  0  0  0  0  0  0  0  0  0  0  0
    0.0667  -25.2671    0.0000 C   0  0  0  0  0  0  0  0  0  0  0  0
    0.7872  -24.8653    0.0000 C   0  0  0  0  0  0  0  0  0  0  0  0
   -1.3932  -22.7877    0.0000 C   0  0  0  0  0  0  0  0  0  0  0  0
   -0.6806  -22.3719    0.0000 C   0  0  0  0  0  0  0  0  0  0  0  0
    0.0359  -22.7810    0.0000 C   0  0  0  0  0  0  0  0  0  0  0  0
    0.7483  -22.3651    0.0000 C   0  0  0  0  0  0  0  0  0  0  0  0
    1.4648  -22.7744    0.0000 N   0  0  0  0  0  0  0  0  0  0  0  0
    2.1773  -22.3584    0.0000 C   0  0  0  0  0  0  0  0  0  0  0  0
    2.8928  -22.7705    0.0000 N   0  0  0  0  0  0  0  0  0  0  0  0
    3.6049  -22.3554    0.0000 N   0  0  0  0  0  0  0  0  0  0  0  0
    3.6015  -21.5295    0.0000 C   0  0  0  0  0  0  0  0  0  0  0  0
    2.8801  -21.1205    0.0000 C   0  0  0  0  0  0  0  0  0  0  0  0
    2.1709  -21.5380    0.0000 C   0  0  0  0  0  0  0  0  0  0  0  0
    2.8737  -20.2963    0.0000 C   0  0  0  0  0  0  0  0  0  0  0  0
    3.5864  -19.8787    0.0000 C   0  0  0  0  0  0  0  0  0  0  0  0
    3.5800  -19.0544    0.0000 C   0  0  0  0  0  0  0  0  0  0  0  0
    2.8616  -18.6470    0.0000 C   0  0  0  0  0  0  0  0  0  0  0  0
    2.1481  -19.0697    0.0000 C   0  0  0  0  0  0  0  0  0  0  0  0
    2.1581  -19.8926    0.0000 C   0  0  0  0  0  0  0  0  0  0  0  0
  4 14  2  0  0  0  0
 18 19  1  0  0  0  0
  6  9  1  0  0  0  0
 19 20  1  0  0  0  0
 12 21  1  0  0  0  0
  9 10  2  0  0  0  0
 21 22  1  0  0  0  0
 14  5  1  0  0  0  0
 22 23  1  0  0  0  0
  9 11  1  0  0  0  0
 23 24  1  0  0  0  0
  5  1  2  0  0  0  0
 24 25  1  0  0  0  0
 11 12  1  0  0  0  0
 25 26  1  0  0  0  0
  2  3  2  0  0  0  0
 26 27  2  0  0  0  0
 11 13  1  0  0  0  0
 27 28  1  0  0  0  0
  5  6  1  0  0  0  0
 28 29  2  0  0  0  0
  1  2  1  0  0  0  0
 29 30  1  0  0  0  0
 13 15  1  0  0  0  0
 30 31  2  0  0  0  0
 31 26  1  0  0  0  0
  1  7  1  0  0  0  0
 15 16  1  0  0  0  0
 32 33  2  0  0  0  0
  3  4  1  0  0  0  0
 33 34  1  0  0  0  0
 16 17  1  0  0  0  0
 34 35  2  0  0  0  0
  3  8  1  0  0  0  0
 35 36  1  0  0  0  0
 17 18  1  0  0  0  0
 36 37  2  0  0  0  0
 37 32  1  0  0  0  0
 30 32  1  0  0  0  0
M  END
> <From>
www.bindingDB.org

> <BindingDB Reactant_set_id>
50329420

> <Ligand InChI>
InChI=1S/C29H37F2N5O/c1-2-3-4-5-11-18-36(29(37)34-27-16-15-25(30)21-26(27)31)19-12-7-10-17-32-28-20-24(22-33-35-28)23-13-8-6-9-14-23/h6,8-9,13-16,20-22H,2-5,7,10-12,17-19H2,1H3,(H,32,35)(H,34,37)

> <Ligand InChI Key>
FSSUYZVDYFGHCK-UHFFFAOYSA-N

> <BindingDB MonomerID>
50177893

> <BindingDB Ligand Name>
CHEMBL383811::N-(2,4-difluorophenyl)-N'-heptyl-N'-{5-[(5-phenyl-pyridazin-3-yl)amino]pentyl}urea

> <Target Name>
Sterol O-acyltransferase 2

> <Target Source Organism According to Curator or DataSource>


> <Ki (nM)>


> <IC50 (nM)>
 101000

> <Kd (nM)>


> <EC50 (nM)>


> <kon (M-1-s-1)>


> <koff (s-1)>


> <pH>


> <Temp (C)>


> <Curation/DataSource>
ChEMBL

> <Article DOI>
10.1021/jm050703x

> <BindingDB Entry DOI>
10.7270/Q2KS6R40

> <PMID>
16302810

> <PubChem AID>


> <Patent Number>


> <Authors>
Gelain, A; Bettinelli, I; Barlocco, D; Kwon, BM; Jeong, TS; Cho, KH; Toma, L

> <Institution>
Universit&#224; di Milano

> <Link to Ligand in BindingDB>
http://www.bindingdb.org/bind/chemsearch/marvin/MolStructure.jsp?monomerid=50177893

> <Link to Target in BindingDB>
http://www.bindingdb.org/jsp/dbsearch/PrimarySearch_ki.jsp?energyterm=kJ/mole&tag=pol&polymerid=7773&target=Sterol+O-acyltransferase+2&column=ki&startPg=0&Increment=50&submit=Search

> <Link to Ligand-Target Pair in BindingDB>
http://www.bindingdb.org/jsp/dbsearch/PrimarySearch_ki.jsp?energyterm=kJ/mole&tag=r21&monomerid=50177893&enzyme=Sterol+O-acyltransferase+2&column=ki&startPg=0&Increment=50&submit=Search

> <Ligand HET ID in PDB>


> <PDB ID(s) for Ligand-Target Complex>


> <PubChem CID>
11519080

> <PubChem SID>
104063290

> <ChEBI ID of Ligand>


> <ChEMBL ID of Ligand>
CHEMBL383811

> <DrugBank ID of Ligand>


> <IUPHAR_GRAC ID of Ligand>


> <KEGG ID of Ligand>


> <ZINC ID of Ligand>
ZINC44069298

> <Number of Protein Chains in Target (>1 implies a multichain complex)>
1

> <BindingDB Target Chain Sequence>
MEPGGARLRLQRTEGLGGERERQPCGDGNTETHRAPDLVQWTRHMEAVKAQLLEQAQGQLRELLDRAMREAIQSYPSQDKPLPPPPPGSLSRTQEPSLGKQKVFIIRKSLLDELMEVQHFRTIYHMFIAGLCVFIISTLAIDFIDEGRLLLEFDLLIFSFGQLPLALVTWVPMFLSTLLAPYQALRLWARGTWTQATGLGCALLAAHAVVLCALPVHVAVEHQLPPASRCVLVFEQVRFLMKSYSFLREAVPGTLRARRGEGIQAPSFSSYLYFLFCPTLIYRETYPRTPYVRWNYVAKNFAQALGCVLYACFILGRLCVPVFANMSREPFSTRALVLSILHATLPGIFMLLLIFFAFLHCWLNAFAEMLRFGDRMFYRDWWNSTSFSNYYRTWNVVVHDWLYSYVYQDGLRLLGARARGVAMLGVFLVSAVAHEYIFCFVLGFFYPVMLILFLVIGGMLNFMMHDQRTGPAWNVLMWTMLFLGQGIQVSLYCQEWYARRHCPLPQATFWGLVTPRSWSCHT

> <PDB ID(s) of Target Chain>


> <UniProt (SwissProt) Recommended Name of Target Chain>
Sterol O-acyltransferase 2

> <UniProt (SwissProt) Entry Name of Target Chain>
ACAT-2

> <UniProt (SwissProt) Primary ID of Target Chain>
O75908

> <UniProt (SwissProt) Secondary ID(s) of Target Chain>
F5H7W4 I6L9H9 Q4VB99 Q4VBA1 Q96TD4 Q9UNR2

> <UniProt (SwissProt) Alternative ID(s) of Target Chain>


> <UniProt (TrEMBL) Submitted Name of Target Chain>


> <UniProt (TrEMBL) Entry Name of Target Chain>


> <UniProt (TrEMBL) Primary ID of Target Chain>


> <UniProt (TrEMBL) Secondary ID(s) of Target Chain>


> <UniProt (TrEMBL) Alternative ID(s) of Target Chain>


$$$$
00023001.cdx
  Mrv0541 06191611392D          

 33 36  0  0  0  0            999 V2000
   -6.0486   -0.6187    0.0000 C   0  0  0  0  0  0  0  0  0  0  0  0
   -6.0486   -1.4437    0.0000 C   0  0  0  0  0  0  0  0  0  0  0  0
   -5.3341   -1.8563    0.0000 C   0  0  0  0  0  0  0  0  0  0  0  0
   -4.6196   -1.4437    0.0000 C   0  0  0  0  0  0  0  0  0  0  0  0
   -4.6196   -0.6187    0.0000 C   0  0  0  0  0  0  0  0  0  0  0  0
   -5.3341   -0.2062    0.0000 C   0  0  0  0  0  0  0  0  0  0  0  0
   -3.8350   -1.6987    0.0000 N   0  0  0  0  0  0  0  0  0  0  0  0
   -3.3501   -1.0313    0.0000 C   0  0  0  0  0  0  0  0  0  0  0  0
   -3.8350   -0.3638    0.0000 N   0  0  0  0  0  0  0  0  0  0  0  0
   -2.5251   -1.0313    0.0000 S   0  0  0  0  0  0  0  0  0  0  0  0
   -1.8106   -0.6187    0.0000 C   0  0  0  0  0  0  0  0  0  0  0  0
   -1.0961   -1.0313    0.0000 C   0  0  0  0  0  0  0  0  0  0  0  0
   -0.3817   -0.6187    0.0000 N   0  0  0  0  0  0  0  0  0  0  0  0
    0.3328   -1.0312    0.0000 C   0  0  0  0  0  0  0  0  0  0  0  0
    1.0473   -0.6187    0.0000 C   0  0  0  0  0  0  0  0  0  0  0  0
    1.0473    0.2062    0.0000 N   0  0  0  0  0  0  0  0  0  0  0  0
    0.3328    0.6187    0.0000 C   0  0  0  0  0  0  0  0  0  0  0  0
   -0.3817    0.2062    0.0000 C   0  0  0  0  0  0  0  0  0  0  0  0
    1.7617    0.6187    0.0000 C   0  0  0  0  0  0  0  0  0  0  0  0
    2.4762    0.2062    0.0000 C   0  0  0  0  0  0  0  0  0  0  0  0
    3.1907    0.6187    0.0000 N   0  0  0  0  0  0  0  0  0  0  0  0
    2.4762   -0.6187    0.0000 O   0  0  0  0  0  0  0  0  0  0  0  0
    3.9052    0.2062    0.0000 C   0  0  0  0  0  0  0  0  0  0  0  0
    3.9052   -0.6187    0.0000 C   0  0  0  0  0  0  0  0  0  0  0  0
    4.6196   -1.0313    0.0000 N   0  0  0  0  0  0  0  0  0  0  0  0
    5.3341   -0.6187    0.0000 C   0  0  0  0  0  0  0  0  0  0  0  0
    5.3341    0.2062    0.0000 C   0  0  0  0  0  0  0  0  0  0  0  0
    4.6196    0.6187    0.0000 C   0  0  0  0  0  0  0  0  0  0  0  0
    3.1907   -1.0313    0.0000 S   0  0  0  0  0  0  0  0  0  0  0  0
    3.1907   -1.8563    0.0000 C   0  0  0  0  0  0  0  0  0  0  0  0
    4.6196    1.4437    0.0000 S   0  0  0  0  0  0  0  0  0  0  0  0
    5.3341    1.8563    0.0000 C   0  0  0  0  0  0  0  0  0  0  0  0
    6.0486   -1.0313    0.0000 C   0  0  0  0  0  0  0  0  0  0  0  0
  1  2  4  0  0  0  0
  2  3  4  0  0  0  0
  3  4  4  0  0  0  0
  4  5  4  0  0  0  0
  5  6  4  0  0  0  0
  6  1  4  0  0  0  0
  4  7  4  0  0  0  0
  7  8  4  0  0  0  0
  8  9  4  0  0  0  0
  9  5  4  0  0  0  0
  8 10  1  0  0  0  0
 10 11  1  0  0  0  0
 11 12  1  0  0  0  0
 12 13  1  0  0  0  0
 13 14  1  0  0  0  0
 14 15  1  0  0  0  0
 15 16  1  0  0  0  0
 16 17  1  0  0  0  0
 17 18  1  0  0  0  0
 18 13  1  0  0  0  0
 16 19  1  0  0  0  0
 19 20  1  0  0  0  0
 20 21  1  0  0  0  0
 20 22  2  0  0  0  0
 21 23  1  0  0  0  0
 23 24  4  0  0  0  0
 24 25  4  0  0  0  0
 25 26  4  0  0  0  0
 26 27  4  0  0  0  0
 27 28  4  0  0  0  0
 28 23  4  0  0  0  0
 24 29  1  0  0  0  0
 29 30  1  0  0  0  0
 28 31  1  0  0  0  0
 31 32  1  0  0  0  0
 26 33  1  0  0  0  0
M  STY  1   1 DAT
M  SAL   1  1   9
M  SDT   1 MRV_IMPLICIT_H                                        
M  SDD   1     0.0000    0.0000    DR    ALL  0       0  
M  SED   1 IMPL_H1
M  END
> <From>
www.bindingDB.org

> <BindingDB Reactant_set_id>
330429

> <Ligand InChI>
InChI=1S/C23H30N6OS3/c1-16-14-19(31-2)21(22(24-16)32-3)27-20(30)15-29-10-8-28(9-11-29)12-13-33-23-25-17-6-4-5-7-18(17)26-23/h4-7,14H,8-13,15H2,1-3H3,(H,25,26)(H,27,30)

> <Ligand InChI Key>
VGGMTOYKEDKFLN-UHFFFAOYSA-N

> <BindingDB MonomerID>
182847

> <BindingDB Ligand Name>
US9149492, K-604

> <Target Name>
Sterol O-acyltransferase 2

> <Target Source Organism According to Curator or DataSource>


> <Ki (nM)>


> <IC50 (nM)>
 102850

> <Kd (nM)>


> <EC50 (nM)>


> <kon (M-1-s-1)>


> <koff (s-1)>


> <pH>


> <Temp (C)>


> <Curation/DataSource>
US Patent

> <Article DOI>


> <BindingDB Entry DOI>
10.7270/Q2N015BF

> <PMID>


> <PubChem AID>
aid1801692

> <Patent Number>
US9149492

> <Authors>
Chang, T; Chang, CC; Shibuya, Y; Bryleva, E; Murphy, S; Rogers, MA

> <Institution>
Dartmouth College

> <Link to Ligand in BindingDB>
http://www.bindingdb.org/bind/chemsearch/marvin/MolStructure.jsp?monomerid=182847

> <Link to Target in BindingDB>
http://www.bindingdb.org/jsp/dbsearch/PrimarySearch_ki.jsp?energyterm=kJ/mole&tag=pol&polymerid=7773&target=Sterol+O-acyltransferase+2&column=ki&startPg=0&Increment=50&submit=Search

> <Link to Ligand-Target Pair in BindingDB>
http://www.bindingdb.org/jsp/dbsearch/PrimarySearch_ki.jsp?energyterm=kJ/mole&tag=r21&monomerid=182847&enzyme=Sterol+O-acyltransferase+2&column=ki&startPg=0&Increment=50&submit=Search

> <Ligand HET ID in PDB>


> <PDB ID(s) for Ligand-Target Complex>


> <PubChem CID>
9892288

> <PubChem SID>
313634370

> <ChEBI ID of Ligand>


> <ChEMBL ID of Ligand>


> <DrugBank ID of Ligand>


> <IUPHAR_GRAC ID of Ligand>


> <KEGG ID of Ligand>


> <ZINC ID of Ligand>


> <Number of Protein Chains in Target (>1 implies a multichain complex)>
1

> <BindingDB Target Chain Sequence>
MEPGGARLRLQRTEGLGGERERQPCGDGNTETHRAPDLVQWTRHMEAVKAQLLEQAQGQLRELLDRAMREAIQSYPSQDKPLPPPPPGSLSRTQEPSLGKQKVFIIRKSLLDELMEVQHFRTIYHMFIAGLCVFIISTLAIDFIDEGRLLLEFDLLIFSFGQLPLALVTWVPMFLSTLLAPYQALRLWARGTWTQATGLGCALLAAHAVVLCALPVHVAVEHQLPPASRCVLVFEQVRFLMKSYSFLREAVPGTLRARRGEGIQAPSFSSYLYFLFCPTLIYRETYPRTPYVRWNYVAKNFAQALGCVLYACFILGRLCVPVFANMSREPFSTRALVLSILHATLPGIFMLLLIFFAFLHCWLNAFAEMLRFGDRMFYRDWWNSTSFSNYYRTWNVVVHDWLYSYVYQDGLRLLGARARGVAMLGVFLVSAVAHEYIFCFVLGFFYPVMLILFLVIGGMLNFMMHDQRTGPAWNVLMWTMLFLGQGIQVSLYCQEWYARRHCPLPQATFWGLVTPRSWSCHT

> <PDB ID(s) of Target Chain>


> <UniProt (SwissProt) Recommended Name of Target Chain>
Sterol O-acyltransferase 2

> <UniProt (SwissProt) Entry Name of Target Chain>
ACAT-2

> <UniProt (SwissProt) Primary ID of Target Chain>
O75908

> <UniProt (SwissProt) Secondary ID(s) of Target Chain>
F5H7W4 I6L9H9 Q4VB99 Q4VBA1 Q96TD4 Q9UNR2

> <UniProt (SwissProt) Alternative ID(s) of Target Chain>


> <UniProt (TrEMBL) Submitted Name of Target Chain>


> <UniProt (TrEMBL) Entry Name of Target Chain>


> <UniProt (TrEMBL) Primary ID of Target Chain>


> <UniProt (TrEMBL) Secondary ID(s) of Target Chain>


> <UniProt (TrEMBL) Alternative ID(s) of Target Chain>


$$$$
00023001.cdx
  Mrv0541 06191611392D          

 33 36  0  0  0  0            999 V2000
   -6.0486   -0.6187    0.0000 C   0  0  0  0  0  0  0  0  0  0  0  0
   -6.0486   -1.4437    0.0000 C   0  0  0  0  0  0  0  0  0  0  0  0
   -5.3341   -1.8563    0.0000 C   0  0  0  0  0  0  0  0  0  0  0  0
   -4.6196   -1.4437    0.0000 C   0  0  0  0  0  0  0  0  0  0  0  0
   -4.6196   -0.6187    0.0000 C   0  0  0  0  0  0  0  0  0  0  0  0
   -5.3341   -0.2062    0.0000 C   0  0  0  0  0  0  0  0  0  0  0  0
   -3.8350   -1.6987    0.0000 N   0  0  0  0  0  0  0  0  0  0  0  0
   -3.3501   -1.0313    0.0000 C   0  0  0  0  0  0  0  0  0  0  0  0
   -3.8350   -0.3638    0.0000 N   0  0  0  0  0  0  0  0  0  0  0  0
   -2.5251   -1.0313    0.0000 S   0  0  0  0  0  0  0  0  0  0  0  0
   -1.8106   -0.6187    0.0000 C   0  0  0  0  0  0  0  0  0  0  0  0
   -1.0961   -1.0313    0.0000 C   0  0  0  0  0  0  0  0  0  0  0  0
   -0.3817   -0.6187    0.0000 N   0  0  0  0  0  0  0  0  0  0  0  0
    0.3328   -1.0312    0.0000 C   0  0  0  0  0  0  0  0  0  0  0  0
    1.0473   -0.6187    0.0000 C   0  0  0  0  0  0  0  0  0  0  0  0
    1.0473    0.2062    0.0000 N   0  0  0  0  0  0  0  0  0  0  0  0
    0.3328    0.6187    0.0000 C   0  0  0  0  0  0  0  0  0  0  0  0
   -0.3817    0.2062    0.0000 C   0  0  0  0  0  0  0  0  0  0  0  0
    1.7617    0.6187    0.0000 C   0  0  0  0  0  0  0  0  0  0  0  0
    2.4762    0.2062    0.0000 C   0  0  0  0  0  0  0  0  0  0  0  0
    3.1907    0.6187    0.0000 N   0  0  0  0  0  0  0  0  0  0  0  0
    2.4762   -0.6187    0.0000 O   0  0  0  0  0  0  0  0  0  0  0  0
    3.9052    0.2062    0.0000 C   0  0  0  0  0  0  0  0  0  0  0  0
    3.9052   -0.6187    0.0000 C   0  0  0  0  0  0  0  0  0  0  0  0
    4.6196   -1.0313    0.0000 N   0  0  0  0  0  0  0  0  0  0  0  0
    5.3341   -0.6187    0.0000 C   0  0  0  0  0  0  0  0  0  0  0  0
    5.3341    0.2062    0.0000 C   0  0  0  0  0  0  0  0  0  0  0  0
    4.6196    0.6187    0.0000 C   0  0  0  0  0  0  0  0  0  0  0  0
    3.1907   -1.0313    0.0000 S   0  0  0  0  0  0  0  0  0  0  0  0
    3.1907   -1.8563    0.0000 C   0  0  0  0  0  0  0  0  0  0  0  0
    4.6196    1.4437    0.0000 S   0  0  0  0  0  0  0  0  0  0  0  0
    5.3341    1.8563    0.0000 C   0  0  0  0  0  0  0  0  0  0  0  0
    6.0486   -1.0313    0.0000 C   0  0  0  0  0  0  0  0  0  0  0  0
  1  2  4  0  0  0  0
  2  3  4  0  0  0  0
  3  4  4  0  0  0  0
  4  5  4  0  0  0  0
  5  6  4  0  0  0  0
  6  1  4  0  0  0  0
  4  7  4  0  0  0  0
  7  8  4  0  0  0  0
  8  9  4  0  0  0  0
  9  5  4  0  0  0  0
  8 10  1  0  0  0  0
 10 11  1  0  0  0  0
 11 12  1  0  0  0  0
 12 13  1  0  0  0  0
 13 14  1  0  0  0  0
 14 15  1  0  0  0  0
 15 16  1  0  0  0  0
 16 17  1  0  0  0  0
 17 18  1  0  0  0  0
 18 13  1  0  0  0  0
 16 19  1  0  0  0  0
 19 20  1  0  0  0  0
 20 21  1  0  0  0  0
 20 22  2  0  0  0  0
 21 23  1  0  0  0  0
 23 24  4  0  0  0  0
 24 25  4  0  0  0  0
 25 26  4  0  0  0  0
 26 27  4  0  0  0  0
 27 28  4  0  0  0  0
 28 23  4  0  0  0  0
 24 29  1  0  0  0  0
 29 30  1  0  0  0  0
 28 31  1  0  0  0  0
 31 32  1  0  0  0  0
 26 33  1  0  0  0  0
M  STY  1   1 DAT
M  SAL   1  1   9
M  SDT   1 MRV_IMPLICIT_H                                        
M  SDD   1     0.0000    0.0000    DR    ALL  0       0  
M  SED   1 IMPL_H1
M  END
> <From>
www.bindingDB.org

> <BindingDB Reactant_set_id>
51138725

> <Ligand InChI>
InChI=1S/C23H30N6OS3/c1-16-14-19(31-2)21(22(24-16)32-3)27-20(30)15-29-10-8-28(9-11-29)12-13-33-23-25-17-6-4-5-7-18(17)26-23/h4-7,14H,8-13,15H2,1-3H3,(H,25,26)(H,27,30)

> <Ligand InChI Key>
VGGMTOYKEDKFLN-UHFFFAOYSA-N

> <BindingDB MonomerID>
182847

> <BindingDB Ligand Name>
US9149492, K-604

> <Target Name>
Sterol O-acyltransferase 2

> <Target Source Organism According to Curator or DataSource>


> <Ki (nM)>


> <IC50 (nM)>
 102850

> <Kd (nM)>


> <EC50 (nM)>


> <kon (M-1-s-1)>


> <koff (s-1)>


> <pH>


> <Temp (C)>


> <Curation/DataSource>
ChEMBL

> <Article DOI>
10.1021/acs.jmedchem.8b01256

> <BindingDB Entry DOI>
10.7270/Q2J38W80

> <PMID>
30433781

> <PubChem AID>


> <Patent Number>


> <Authors>
Shibuya, K; Kawamine, K; Ozaki, C; Ohgiya, T; Edano, T; Yoshinaka, Y; Tsunenari, Y

> <Institution>
Kowa Company, Ltd.

> <Link to Ligand in BindingDB>
http://www.bindingdb.org/bind/chemsearch/marvin/MolStructure.jsp?monomerid=182847

> <Link to Target in BindingDB>
http://www.bindingdb.org/jsp/dbsearch/PrimarySearch_ki.jsp?energyterm=kJ/mole&tag=pol&polymerid=7773&target=Sterol+O-acyltransferase+2&column=ki&startPg=0&Increment=50&submit=Search

> <Link to Ligand-Target Pair in BindingDB>
http://www.bindingdb.org/jsp/dbsearch/PrimarySearch_ki.jsp?energyterm=kJ/mole&tag=r21&monomerid=182847&enzyme=Sterol+O-acyltransferase+2&column=ki&startPg=0&Increment=50&submit=Search

> <Ligand HET ID in PDB>


> <PDB ID(s) for Ligand-Target Complex>


> <PubChem CID>
9892288

> <PubChem SID>
313634370

> <ChEBI ID of Ligand>


> <ChEMBL ID of Ligand>


> <DrugBank ID of Ligand>


> <IUPHAR_GRAC ID of Ligand>


> <KEGG ID of Ligand>


> <ZINC ID of Ligand>


> <Number of Protein Chains in Target (>1 implies a multichain complex)>
1

> <BindingDB Target Chain Sequence>
MEPGGARLRLQRTEGLGGERERQPCGDGNTETHRAPDLVQWTRHMEAVKAQLLEQAQGQLRELLDRAMREAIQSYPSQDKPLPPPPPGSLSRTQEPSLGKQKVFIIRKSLLDELMEVQHFRTIYHMFIAGLCVFIISTLAIDFIDEGRLLLEFDLLIFSFGQLPLALVTWVPMFLSTLLAPYQALRLWARGTWTQATGLGCALLAAHAVVLCALPVHVAVEHQLPPASRCVLVFEQVRFLMKSYSFLREAVPGTLRARRGEGIQAPSFSSYLYFLFCPTLIYRETYPRTPYVRWNYVAKNFAQALGCVLYACFILGRLCVPVFANMSREPFSTRALVLSILHATLPGIFMLLLIFFAFLHCWLNAFAEMLRFGDRMFYRDWWNSTSFSNYYRTWNVVVHDWLYSYVYQDGLRLLGARARGVAMLGVFLVSAVAHEYIFCFVLGFFYPVMLILFLVIGGMLNFMMHDQRTGPAWNVLMWTMLFLGQGIQVSLYCQEWYARRHCPLPQATFWGLVTPRSWSCHT

> <PDB ID(s) of Target Chain>


> <UniProt (SwissProt) Recommended Name of Target Chain>
Sterol O-acyltransferase 2

> <UniProt (SwissProt) Entry Name of Target Chain>
ACAT-2

> <UniProt (SwissProt) Primary ID of Target Chain>
O75908

> <UniProt (SwissProt) Secondary ID(s) of Target Chain>
F5H7W4 I6L9H9 Q4VB99 Q4VBA1 Q96TD4 Q9UNR2

> <UniProt (SwissProt) Alternative ID(s) of Target Chain>


> <UniProt (TrEMBL) Submitted Name of Target Chain>


> <UniProt (TrEMBL) Entry Name of Target Chain>


> <UniProt (TrEMBL) Primary ID of Target Chain>


> <UniProt (TrEMBL) Secondary ID(s) of Target Chain>


> <UniProt (TrEMBL) Alternative ID(s) of Target Chain>


$$$$
 
  Mrv0541 11221400292D          

 29 31  0  0  0  0            999 V2000
   -3.2875   -0.8569    0.0000 C   0  0  0  0  0  0  0  0  0  0  0  0
   -3.2888   -1.6845    0.0000 C   0  0  0  0  0  0  0  0  0  0  0  0
   -2.5759   -2.0974    0.0000 C   0  0  0  0  0  0  0  0  0  0  0  0
   -2.5779   -0.4443    0.0000 C   0  0  0  0  0  0  0  0  0  0  0  0
   -1.8598   -0.8530    0.0000 C   0  0  0  0  0  0  0  0  0  0  0  0
   -1.8561   -1.6865    0.0000 C   0  0  0  0  0  0  0  0  0  0  0  0
   -1.1363   -2.0979    0.0000 C   0  0  0  0  0  0  0  0  0  0  0  0
   -1.1438   -0.4307    0.0000 O   0  0  0  0  0  0  0  0  0  0  0  0
   -0.4194   -0.8466    0.0000 C   0  0  0  0  0  0  0  0  0  0  0  0
   -0.4195   -1.6799    0.0000 C   0  0  0  0  0  0  0  0  0  0  0  0
    0.3009   -2.0950    0.0000 C   0  0  0  0  0  0  0  0  0  0  0  0
    1.0221   -1.6777    0.0000 C   0  0  0  0  0  0  0  0  0  0  0  0
    1.0182   -0.8412    0.0000 C   0  0  0  0  0  0  0  0  0  0  0  0
    0.2971   -0.4300    0.0000 C   0  0  0  0  0  0  0  0  0  0  0  0
    1.7306   -0.4251    0.0000 O   0  0  0  0  0  0  0  0  0  0  0  0
    1.7376   -2.0882    0.0000 O   0  0  0  0  0  0  0  0  0  0  0  0
   -1.1328   -2.9228    0.0000 O   0  0  0  0  0  0  0  0  0  0  0  0
   -4.0023   -0.4451    0.0000 O   0  0  0  0  0  0  0  0  0  0  0  0
   -2.5785   -2.9223    0.0000 O   0  0  0  0  0  0  0  0  0  0  0  0
   -2.5818    0.3807    0.0000 C   0  0  0  0  0  0  0  0  0  0  0  0
   -3.2981    0.7898    0.0000 C   0  0  0  0  0  0  0  0  0  0  0  0
   -3.3019    1.6148    0.0000 C   0  0  0  0  0  0  0  0  0  0  0  0
   -4.0183    2.0238    0.0000 C   0  0  0  0  0  0  0  0  0  0  0  0
   -2.5895    2.0305    0.0000 C   0  0  0  0  0  0  0  0  0  0  0  0
   -4.0038   -2.0960    0.0000 C   0  0  0  0  0  0  0  0  0  0  0  0
   -4.7205   -2.5023    0.0000 C   0  0  0  0  0  0  0  0  0  0  0  0
   -3.5946   -2.8122    0.0000 C   0  0  0  0  0  0  0  0  0  0  0  0
   -4.4139   -1.3802    0.0000 C   0  0  0  0  0  0  0  0  0  0  0  0
   -5.4317   -2.0843    0.0000 C   0  0  0  0  0  0  0  0  0  0  0  0
 13 14  1  0  0  0  0
 14  9  2  0  0  0  0
  1  2  2  0  0  0  0
 13 15  1  0  0  0  0
  5  8  1  0  0  0  0
 12 16  1  0  0  0  0
  6  7  1  0  0  0  0
  7 17  2  0  0  0  0
  7 10  1  0  0  0  0
  1 18  1  0  0  0  0
  9  8  1  0  0  0  0
  3 19  1  0  0  0  0
  5  4  2  0  0  0  0
  4 20  1  0  0  0  0
  4  1  1  0  0  0  0
 20 21  1  0  0  0  0
  9 10  1  0  0  0  0
 21 22  2  0  0  0  0
  5  6  1  0  0  0  0
 22 23  1  0  0  0  0
 10 11  2  0  0  0  0
 22 24  1  0  0  0  0
  2 25  1  0  0  0  0
 11 12  1  0  0  0  0
 25 26  1  0  0  0  0
  2  3  1  0  0  0  0
 25 27  1  0  0  0  0
 12 13  2  0  0  0  0
 25 28  1  0  0  0  0
  3  6  2  0  0  0  0
 26 29  2  0  0  0  0
M  END
> <From>
www.bindingDB.org

> <BindingDB Reactant_set_id>
50357580

> <Ligand InChI>
InChI=1S/C23H24O6/c1-6-23(4,5)18-20(27)12(8-7-11(2)3)22-17(21(18)28)19(26)13-9-14(24)15(25)10-16(13)29-22/h6-7,9-10,24-25,27-28H,1,8H2,2-5H3

> <Ligand InChI Key>
QFYDCUMYVXSZFJ-UHFFFAOYSA-N

> <BindingDB MonomerID>
50175012

> <BindingDB Ligand Name>
1,3,6,7-tetrahydroxy-4-(3-methylbut-2-enyl)-2-(2-methylbut-3-en-2-yl)-9H-xanthen-9-one::2,3,6,8-tetrahydroxy-5-(3-methylbut-2-enyl)-7-(2-methylbut-3-en-2-yl)-9H-xanthen-9-one::CHEMBL370126::macluraxanthone B

> <Target Name>
Sterol O-acyltransferase 2

> <Target Source Organism According to Curator or DataSource>


> <Ki (nM)>


> <IC50 (nM)>
 112000

> <Kd (nM)>


> <EC50 (nM)>


> <kon (M-1-s-1)>


> <koff (s-1)>


> <pH>


> <Temp (C)>


> <Curation/DataSource>
ChEMBL

> <Article DOI>
10.1016/j.bmcl.2006.08.032

> <BindingDB Entry DOI>
10.7270/Q2PV6K0R

> <PMID>
16919944

> <PubChem AID>


> <Patent Number>


> <Authors>
Park, KH; Park, YD; Han, JM; Im, KR; Lee, BW; Jeong, IY; Jeong, TS; Lee, WS

> <Institution>
National Research Laboratory of Lipid Metabolism and Atherosclerosis

> <Link to Ligand in BindingDB>
http://www.bindingdb.org/bind/chemsearch/marvin/MolStructure.jsp?monomerid=50175012

> <Link to Target in BindingDB>
http://www.bindingdb.org/jsp/dbsearch/PrimarySearch_ki.jsp?energyterm=kJ/mole&tag=pol&polymerid=7773&target=Sterol+O-acyltransferase+2&column=ki&startPg=0&Increment=50&submit=Search

> <Link to Ligand-Target Pair in BindingDB>
http://www.bindingdb.org/jsp/dbsearch/PrimarySearch_ki.jsp?energyterm=kJ/mole&tag=r21&monomerid=50175012&enzyme=Sterol+O-acyltransferase+2&column=ki&startPg=0&Increment=50&submit=Search

> <Ligand HET ID in PDB>


> <PDB ID(s) for Ligand-Target Complex>


> <PubChem CID>
5353737

> <PubChem SID>
104060753

> <ChEBI ID of Ligand>
66649

> <ChEMBL ID of Ligand>
CHEMBL370126

> <DrugBank ID of Ligand>


> <IUPHAR_GRAC ID of Ligand>


> <KEGG ID of Ligand>


> <ZINC ID of Ligand>
ZINC05849303

> <Number of Protein Chains in Target (>1 implies a multichain complex)>
1

> <BindingDB Target Chain Sequence>
MEPGGARLRLQRTEGLGGERERQPCGDGNTETHRAPDLVQWTRHMEAVKAQLLEQAQGQLRELLDRAMREAIQSYPSQDKPLPPPPPGSLSRTQEPSLGKQKVFIIRKSLLDELMEVQHFRTIYHMFIAGLCVFIISTLAIDFIDEGRLLLEFDLLIFSFGQLPLALVTWVPMFLSTLLAPYQALRLWARGTWTQATGLGCALLAAHAVVLCALPVHVAVEHQLPPASRCVLVFEQVRFLMKSYSFLREAVPGTLRARRGEGIQAPSFSSYLYFLFCPTLIYRETYPRTPYVRWNYVAKNFAQALGCVLYACFILGRLCVPVFANMSREPFSTRALVLSILHATLPGIFMLLLIFFAFLHCWLNAFAEMLRFGDRMFYRDWWNSTSFSNYYRTWNVVVHDWLYSYVYQDGLRLLGARARGVAMLGVFLVSAVAHEYIFCFVLGFFYPVMLILFLVIGGMLNFMMHDQRTGPAWNVLMWTMLFLGQGIQVSLYCQEWYARRHCPLPQATFWGLVTPRSWSCHT

> <PDB ID(s) of Target Chain>


> <UniProt (SwissProt) Recommended Name of Target Chain>
Sterol O-acyltransferase 2

> <UniProt (SwissProt) Entry Name of Target Chain>
ACAT-2

> <UniProt (SwissProt) Primary ID of Target Chain>
O75908

> <UniProt (SwissProt) Secondary ID(s) of Target Chain>
F5H7W4 I6L9H9 Q4VB99 Q4VBA1 Q96TD4 Q9UNR2

> <UniProt (SwissProt) Alternative ID(s) of Target Chain>


> <UniProt (TrEMBL) Submitted Name of Target Chain>


> <UniProt (TrEMBL) Entry Name of Target Chain>


> <UniProt (TrEMBL) Primary ID of Target Chain>


> <UniProt (TrEMBL) Secondary ID(s) of Target Chain>


> <UniProt (TrEMBL) Alternative ID(s) of Target Chain>


$$$$
 
  Mrv0541 11221423482D          

 24 25  0  0  0  0            999 V2000
    1.2611  -18.1458    0.0000 C   0  0  0  0  0  0  0  0  0  0  0  0
    1.2599  -18.9732    0.0000 C   0  0  0  0  0  0  0  0  0  0  0  0
    1.9747  -19.3860    0.0000 C   0  0  0  0  0  0  0  0  0  0  0  0
    1.9729  -17.7330    0.0000 C   0  0  0  0  0  0  0  0  0  0  0  0
    2.6883  -18.1422    0.0000 C   0  0  0  0  0  0  0  0  0  0  0  0
    2.6871  -18.9706    0.0000 C   0  0  0  0  0  0  0  0  0  0  0  0
    3.4001  -19.3836    0.0000 C   0  0  0  0  0  0  0  0  0  0  0  0
    4.1188  -18.9727    0.0000 C   0  0  0  0  0  0  0  0  0  0  0  0
    4.1199  -18.1442    0.0000 C   0  0  0  0  0  0  0  0  0  0  0  0
    3.4024  -17.7266    0.0000 C   0  0  0  0  0  0  0  0  0  0  0  0
    3.4024  -16.9016    0.0000 O   0  0  0  0  0  0  0  0  0  0  0  0
    3.3978  -20.2086    0.0000 O   0  0  0  0  0  0  0  0  0  0  0  0
    1.9705  -16.9080    0.0000 O   0  0  0  0  0  0  0  0  0  0  0  0
    1.9764  -20.2110    0.0000 O   0  0  0  0  0  0  0  0  0  0  0  0
    4.8321  -19.3872    0.0000 C   0  0  0  0  0  0  0  0  0  0  0  0
    4.8298  -20.2122    0.0000 O   0  0  0  0  0  0  0  0  0  0  0  0
    5.5477  -18.9767    0.0000 C   0  0  0  0  0  0  0  0  0  0  0  0
    6.2610  -19.3911    0.0000 C   0  0  0  0  0  0  0  0  0  0  0  0
    6.9766  -18.9806    0.0000 C   0  0  0  0  0  0  0  0  0  0  0  0
    7.6900  -19.3951    0.0000 C   0  0  0  0  0  0  0  0  0  0  0  0
    6.9789  -18.1556    0.0000 C   0  0  0  0  0  0  0  0  0  0  0  0
    5.5431  -20.6266    0.0000 C   0  0  0  0  0  0  0  0  0  0  0  0
    5.5408  -21.4516    0.0000 C   0  0  0  0  0  0  0  0  0  0  0  0
    6.2587  -20.2161    0.0000 O   0  0  0  0  0  0  0  0  0  0  0  0
  7 12  1  0  0  0  0
  2  3  1  0  0  0  0
  4 13  1  0  0  0  0
  3  6  2  0  0  0  0
  3 14  1  0  0  0  0
  1  2  2  0  0  0  0
  8 15  1  0  0  0  0
  5  4  2  0  0  0  0
 15 16  1  0  0  0  0
  4  1  1  0  0  0  0
 15 17  2  0  0  0  0
  5 10  1  0  0  0  0
 17 18  1  4  0  0  0
  6  7  1  0  0  0  0
 18 19  2  0  0  0  0
  7  8  2  0  0  0  0
 19 20  1  0  0  0  0
  8  9  1  0  0  0  0
 19 21  1  0  0  0  0
  9 10  2  0  0  0  0
 16 22  1  0  0  0  0
  5  6  1  0  0  0  0
 22 23  1  0  0  0  0
 10 11  1  0  0  0  0
 22 24  2  0  0  0  0
M  END
> <From>
www.bindingDB.org

> <BindingDB Reactant_set_id>
50367866

> <Ligand InChI>
InChI=1S/C18H18O6/c1-9(2)4-7-15(24-10(3)19)11-8-14(22)16-12(20)5-6-13(21)17(16)18(11)23/h4-8,20-23H,1-3H3

> <Ligand InChI Key>
AOZNCNHRJFGKGG-UHFFFAOYSA-N

> <BindingDB MonomerID>
50033741

> <BindingDB Ligand Name>
(R)-1-(5,8-dihydroxy-1,4-dioxo-1,4-dihydronaphthalen-2-yl)-4-methylpent-3-enyl acetate::1-(5,8-dihydroxy-1,4-dioxo-1,4-dihydronaphthalen-2-yl)-4-methylpent-3-enyl acetate::Acetic acid (R)-1-(5,8-dihydroxy-1,4-dioxo-1,4-dihydro-naphthalen-2-yl)-4-methyl-pent-3-enyl ester::Acetic acid 1-(5,8-dihydroxy-1,4-dioxo-1,4-dihydro-naphthalen-2-yl)-4-methyl-pent-3-enyl ester::CHEMBL403516::acetylshikonin

> <Target Name>
Sterol O-acyltransferase 2

> <Target Source Organism According to Curator or DataSource>


> <Ki (nM)>


> <IC50 (nM)>
 112200

> <Kd (nM)>


> <EC50 (nM)>


> <kon (M-1-s-1)>


> <koff (s-1)>


> <pH>


> <Temp (C)>


> <Curation/DataSource>
ChEMBL

> <Article DOI>
10.1016/j.bmcl.2006.11.024

> <BindingDB Entry DOI>
10.7270/Q2H70FFW

> <PMID>
17157006

> <PubChem AID>


> <Patent Number>


> <Authors>
An, S; Park, YD; Paik, YK; Jeong, TS; Lee, WS

> <Institution>
National Research Laboratory of Lipid Metabolism and Atherosclerosis

> <Link to Ligand in BindingDB>
http://www.bindingdb.org/bind/chemsearch/marvin/MolStructure.jsp?monomerid=50033741

> <Link to Target in BindingDB>
http://www.bindingdb.org/jsp/dbsearch/PrimarySearch_ki.jsp?energyterm=kJ/mole&tag=pol&polymerid=7773&target=Sterol+O-acyltransferase+2&column=ki&startPg=0&Increment=50&submit=Search

> <Link to Ligand-Target Pair in BindingDB>
http://www.bindingdb.org/jsp/dbsearch/PrimarySearch_ki.jsp?energyterm=kJ/mole&tag=r21&monomerid=50033741&enzyme=Sterol+O-acyltransferase+2&column=ki&startPg=0&Increment=50&submit=Search

> <Ligand HET ID in PDB>


> <PDB ID(s) for Ligand-Target Complex>


> <PubChem CID>
91929176

> <PubChem SID>
103941993

> <ChEBI ID of Ligand>


> <ChEMBL ID of Ligand>
CHEMBL403516

> <DrugBank ID of Ligand>


> <IUPHAR_GRAC ID of Ligand>


> <KEGG ID of Ligand>


> <ZINC ID of Ligand>
ZINC01725698

> <Number of Protein Chains in Target (>1 implies a multichain complex)>
1

> <BindingDB Target Chain Sequence>
MEPGGARLRLQRTEGLGGERERQPCGDGNTETHRAPDLVQWTRHMEAVKAQLLEQAQGQLRELLDRAMREAIQSYPSQDKPLPPPPPGSLSRTQEPSLGKQKVFIIRKSLLDELMEVQHFRTIYHMFIAGLCVFIISTLAIDFIDEGRLLLEFDLLIFSFGQLPLALVTWVPMFLSTLLAPYQALRLWARGTWTQATGLGCALLAAHAVVLCALPVHVAVEHQLPPASRCVLVFEQVRFLMKSYSFLREAVPGTLRARRGEGIQAPSFSSYLYFLFCPTLIYRETYPRTPYVRWNYVAKNFAQALGCVLYACFILGRLCVPVFANMSREPFSTRALVLSILHATLPGIFMLLLIFFAFLHCWLNAFAEMLRFGDRMFYRDWWNSTSFSNYYRTWNVVVHDWLYSYVYQDGLRLLGARARGVAMLGVFLVSAVAHEYIFCFVLGFFYPVMLILFLVIGGMLNFMMHDQRTGPAWNVLMWTMLFLGQGIQVSLYCQEWYARRHCPLPQATFWGLVTPRSWSCHT

> <PDB ID(s) of Target Chain>


> <UniProt (SwissProt) Recommended Name of Target Chain>
Sterol O-acyltransferase 2

> <UniProt (SwissProt) Entry Name of Target Chain>
ACAT-2

> <UniProt (SwissProt) Primary ID of Target Chain>
O75908

> <UniProt (SwissProt) Secondary ID(s) of Target Chain>
F5H7W4 I6L9H9 Q4VB99 Q4VBA1 Q96TD4 Q9UNR2

> <UniProt (SwissProt) Alternative ID(s) of Target Chain>


> <UniProt (TrEMBL) Submitted Name of Target Chain>


> <UniProt (TrEMBL) Entry Name of Target Chain>


> <UniProt (TrEMBL) Primary ID of Target Chain>


> <UniProt (TrEMBL) Secondary ID(s) of Target Chain>


> <UniProt (TrEMBL) Alternative ID(s) of Target Chain>


$$$$

  Mrv0541 11211416102D          

 36 40  0  0  1  0            999 V2000
    0.5375   -2.1917    0.0000 O   0  0  0  0  0  0  0  0  0  0  0  0
   -0.1333   -1.7042    0.0000 C   0  0  2  0  0  0  0  0  0  0  0  0
    1.2042   -1.7042    0.0000 C   0  0  1  0  0  0  0  0  0  0  0  0
    0.1250   -0.9250    0.0000 C   0  0  2  0  0  0  0  0  0  0  0  0
    0.9500   -0.9250    0.0000 C   0  0  1  0  0  0  0  0  0  0  0  0
   -0.9125   -1.9625    0.0000 C   0  0  0  0  0  0  0  0  0  0  0  0
    6.7875   -0.5167    0.0000 C   0  0  0  0  0  0  0  0  0  0  0  0
   -1.5250   -1.4042    0.0000 C   0  0  0  0  0  0  0  0  0  0  0  0
   -2.3083   -1.6625    0.0000 C   0  0  0  0  0  0  0  0  0  0  0  0
    1.9917   -1.9625    0.0000 C   0  0  0  0  0  0  0  0  0  0  0  0
    6.6167    0.2958    0.0000 C   0  0  0  0  0  0  0  0  0  0  0  0
    7.6042   -0.6042    0.0000 O   0  0  0  0  0  0  0  0  0  0  0  0
    7.3292    0.7083    0.0000 O   0  0  0  0  0  0  0  0  0  0  0  0
    7.9417    0.1500    0.0000 C   0  0  0  0  0  0  0  0  0  0  0  0
    6.1792   -1.0667    0.0000 C   0  0  0  0  0  0  0  0  0  0  0  0
   -2.4833   -2.4667    0.0000 C   0  0  0  0  0  0  0  0  0  0  0  0
   -1.0833   -2.7667    0.0000 C   0  0  0  0  0  0  0  0  0  0  0  0
    5.3917   -0.8125    0.0000 C   0  0  0  0  0  0  0  0  0  0  0  0
   -1.8625   -3.0167    0.0000 C   0  0  0  0  0  0  0  0  0  0  0  0
    4.3417   -2.7250    0.0000 O   0  0  0  0  0  0  0  0  0  0  0  0
    5.8250    0.5458    0.0000 C   0  0  0  0  0  0  0  0  0  0  0  0
    2.1542   -2.7667    0.0000 C   0  0  0  0  0  0  0  0  0  0  0  0
    2.5917   -1.4042    0.0000 C   0  0  0  0  0  0  0  0  0  0  0  0
    4.7792   -1.3667    0.0000 C   0  0  0  0  0  0  0  0  0  0  0  0
    3.5542   -2.4667    0.0000 C   0  0  0  0  0  0  0  0  0  0  0  0
    4.9500   -2.1667    0.0000 C   0  0  1  0  0  0  0  0  0  0  0  0
    5.2167   -0.0125    0.0000 C   0  0  0  0  0  0  0  0  0  0  0  0
    2.9417   -3.0167    0.0000 C   0  0  0  0  0  0  0  0  0  0  0  0
    3.3792   -1.6542    0.0000 C   0  0  0  0  0  0  0  0  0  0  0  0
   -2.9250   -1.1125    0.0000 O   0  0  0  0  0  0  0  0  0  0  0  0
   -3.2708   -2.7250    0.0000 O   0  0  0  0  0  0  0  0  0  0  0  0
    1.4292   -0.2542    0.0000 C   0  0  0  0  0  0  0  0  0  0  0  0
   -0.3625   -0.2542    0.0000 C   0  0  0  0  0  0  0  0  0  0  0  0
    5.7375   -2.4250    0.0000 C   0  0  0  0  0  0  0  0  0  0  0  0
   -3.7083   -1.3667    0.0000 C   0  0  0  0  0  0  0  0  0  0  0  0
   -3.4375   -3.5292    0.0000 C   0  0  0  0  0  0  0  0  0  0  0  0
  2  1  1  0  0  0  0
  3  1  1  0  0  0  0
  4  2  1  0  0  0  0
  5  3  1  0  0  0  0
  2  6  1  1  0  0  0
  7 15  2  0  0  0  0
  8  6  2  0  0  0  0
  9  8  1  0  0  0  0
  3 10  1  1  0  0  0
 11 21  2  0  0  0  0
 12  7  1  0  0  0  0
 13 11  1  0  0  0  0
 14 12  1  0  0  0  0
 15 18  1  0  0  0  0
 16 19  1  0  0  0  0
 17  6  1  0  0  0  0
 18 24  1  0  0  0  0
 19 17  2  0  0  0  0
 20 25  1  0  0  0  0
 21 27  1  0  0  0  0
 22 10  2  0  0  0  0
 23 10  1  0  0  0  0
 26 24  1  0  0  0  0
 25 29  1  0  0  0  0
 26 20  1  0  0  0  0
 27 18  2  0  0  0  0
 28 22  1  0  0  0  0
 29 23  2  0  0  0  0
 30  9  1  0  0  0  0
 31 16  1  0  0  0  0
  5 32  1  1  0  0  0
  4 33  1  1  0  0  0
 26 34  1  1  0  0  0
 35 30  1  0  0  0  0
 36 31  1  0  0  0  0
  4  5  1  0  0  0  0
 25 28  2  0  0  0  0
 16  9  2  0  0  0  0
  7 11  1  0  0  0  0
 13 14  1  0  0  0  0
M  END
> <From>
www.bindingDB.org

> <BindingDB Reactant_set_id>
50270327

> <Ligand InChI>
InChI=1S/C30H34O6/c1-18(14-21-6-12-26-28(15-21)34-17-33-26)35-24-10-7-22(8-11-24)29-19(2)20(3)30(36-29)23-9-13-25(31-4)27(16-23)32-5/h6-13,15-16,18-20,29-30H,14,17H2,1-5H3/t18-,19-,20+,29+,30-/m1/s1

> <Ligand InChI Key>
BXBJFRDMPXQGKK-ABSWLNNXSA-N

> <BindingDB MonomerID>
50147179

> <BindingDB Ligand Name>
5-((R)-2-{4-[(2S,3R,4S,5R)-5-(3,4-Dimethoxy-phenyl)-3,4-dimethyl-tetrahydro-furan-2-yl]-phenoxy}-propyl)-benzo[1,3]dioxole::CHEMBL431258

> <Target Name>
Sterol O-acyltransferase 2

> <Target Source Organism According to Curator or DataSource>


> <Ki (nM)>


> <IC50 (nM)>
 124000

> <Kd (nM)>


> <EC50 (nM)>


> <kon (M-1-s-1)>


> <koff (s-1)>


> <pH>


> <Temp (C)>


> <Curation/DataSource>
ChEMBL

> <Article DOI>
10.1016/j.bmcl.2004.04.023

> <BindingDB Entry DOI>
10.7270/Q2X929Q0

> <PMID>
15149654

> <PubChem AID>


> <Patent Number>


> <Authors>
Lee, WS; Lee, DW; Baek, YI; An, S; An, SJ; Cho, KH; Choi, YK; Kim, HC; Park, HY; Bae, KH; Jeong, TS

> <Institution>
Korea Research Institute of Bioscience and Biotechnology

> <Link to Ligand in BindingDB>
http://www.bindingdb.org/bind/chemsearch/marvin/MolStructure.jsp?monomerid=50147179

> <Link to Target in BindingDB>
http://www.bindingdb.org/jsp/dbsearch/PrimarySearch_ki.jsp?energyterm=kJ/mole&tag=pol&polymerid=7773&target=Sterol+O-acyltransferase+2&column=ki&startPg=0&Increment=50&submit=Search

> <Link to Ligand-Target Pair in BindingDB>
http://www.bindingdb.org/jsp/dbsearch/PrimarySearch_ki.jsp?energyterm=kJ/mole&tag=r21&monomerid=50147179&enzyme=Sterol+O-acyltransferase+2&column=ki&startPg=0&Increment=50&submit=Search

> <Ligand HET ID in PDB>


> <PDB ID(s) for Ligand-Target Complex>


> <PubChem CID>
44336162

> <PubChem SID>
104035700

> <ChEBI ID of Ligand>


> <ChEMBL ID of Ligand>
CHEMBL431258

> <DrugBank ID of Ligand>


> <IUPHAR_GRAC ID of Ligand>


> <KEGG ID of Ligand>


> <ZINC ID of Ligand>
ZINC26837977

> <Number of Protein Chains in Target (>1 implies a multichain complex)>
1

> <BindingDB Target Chain Sequence>
MEPGGARLRLQRTEGLGGERERQPCGDGNTETHRAPDLVQWTRHMEAVKAQLLEQAQGQLRELLDRAMREAIQSYPSQDKPLPPPPPGSLSRTQEPSLGKQKVFIIRKSLLDELMEVQHFRTIYHMFIAGLCVFIISTLAIDFIDEGRLLLEFDLLIFSFGQLPLALVTWVPMFLSTLLAPYQALRLWARGTWTQATGLGCALLAAHAVVLCALPVHVAVEHQLPPASRCVLVFEQVRFLMKSYSFLREAVPGTLRARRGEGIQAPSFSSYLYFLFCPTLIYRETYPRTPYVRWNYVAKNFAQALGCVLYACFILGRLCVPVFANMSREPFSTRALVLSILHATLPGIFMLLLIFFAFLHCWLNAFAEMLRFGDRMFYRDWWNSTSFSNYYRTWNVVVHDWLYSYVYQDGLRLLGARARGVAMLGVFLVSAVAHEYIFCFVLGFFYPVMLILFLVIGGMLNFMMHDQRTGPAWNVLMWTMLFLGQGIQVSLYCQEWYARRHCPLPQATFWGLVTPRSWSCHT

> <PDB ID(s) of Target Chain>


> <UniProt (SwissProt) Recommended Name of Target Chain>
Sterol O-acyltransferase 2

> <UniProt (SwissProt) Entry Name of Target Chain>
ACAT-2

> <UniProt (SwissProt) Primary ID of Target Chain>
O75908

> <UniProt (SwissProt) Secondary ID(s) of Target Chain>
F5H7W4 I6L9H9 Q4VB99 Q4VBA1 Q96TD4 Q9UNR2

> <UniProt (SwissProt) Alternative ID(s) of Target Chain>


> <UniProt (TrEMBL) Submitted Name of Target Chain>


> <UniProt (TrEMBL) Entry Name of Target Chain>


> <UniProt (TrEMBL) Primary ID of Target Chain>


> <UniProt (TrEMBL) Secondary ID(s) of Target Chain>


> <UniProt (TrEMBL) Alternative ID(s) of Target Chain>


$$$$

  Mrv0541 11221400292D          

 25 27  0  0  0  0            999 V2000
   -4.8287   -5.6103    0.0000 C   0  0  0  0  0  0  0  0  0  0  0  0
   -4.1171   -5.1976    0.0000 C   0  0  0  0  0  0  0  0  0  0  0  0
   -3.4020   -5.6066    0.0000 C   0  0  0  0  0  0  0  0  0  0  0  0
   -3.4032   -6.4393    0.0000 C   0  0  0  0  0  0  0  0  0  0  0  0
   -2.6866   -6.8545    0.0000 O   0  0  0  0  0  0  0  0  0  0  0  0
   -2.6842   -5.1889    0.0000 C   0  0  0  0  0  0  0  0  0  0  0  0
   -1.9630   -5.6087    0.0000 C   0  0  0  0  0  0  0  0  0  0  0  0
   -1.9643   -6.4372    0.0000 C   0  0  0  0  0  0  0  0  0  0  0  0
   -1.2485   -6.8509    0.0000 C   0  0  0  0  0  0  0  0  0  0  0  0
   -0.5309   -6.4370    0.0000 C   0  0  0  0  0  0  0  0  0  0  0  0
   -0.5337   -5.6053    0.0000 C   0  0  0  0  0  0  0  0  0  0  0  0
   -1.2500   -5.1954    0.0000 C   0  0  0  0  0  0  0  0  0  0  0  0
   -4.1153   -6.8500    0.0000 C   0  0  0  0  0  0  0  0  0  0  0  0
   -4.8330   -6.4387    0.0000 C   0  0  0  0  0  0  0  0  0  0  0  0
   -5.5440   -6.8524    0.0000 O   0  0  0  0  0  0  0  0  0  0  0  0
   -1.2524   -4.3708    0.0000 O   0  0  0  0  0  0  0  0  0  0  0  0
    0.1838   -6.8484    0.0000 O   0  0  0  0  0  0  0  0  0  0  0  0
   -1.2488   -7.6756    0.0000 C   0  0  0  0  0  0  0  0  0  0  0  0
   -1.9632   -8.0876    0.0000 C   0  0  0  0  0  0  0  0  0  0  0  0
   -1.9635   -8.9123    0.0000 C   0  0  0  0  0  0  0  0  0  0  0  0
   -1.0371   -8.4674    0.0000 C   0  0  0  0  0  0  0  0  0  0  0  0
   -0.4540   -7.4553    0.0000 C   0  0  0  0  0  0  0  0  0  0  0  0
   -2.6841   -4.3643    0.0000 O   0  0  0  0  0  0  0  0  0  0  0  0
    0.8974   -6.4350    0.0000 C   0  0  0  0  0  0  0  0  0  0  0  0
   -4.1142   -7.6747    0.0000 O   0  0  0  0  0  0  0  0  0  0  0  0
  3  2  2  0  0  0  0
 11 12  1  0  0  0  0
 12  7  2  0  0  0  0
 13 14  1  0  0  0  0
  3  6  1  0  0  0  0
  4  5  1  0  0  0  0
  5  8  1  0  0  0  0
 14 15  1  0  0  0  0
  7  6  1  0  0  0  0
 12 16  1  0  0  0  0
  2  1  1  0  0  0  0
 10 17  1  0  0  0  0
  3  4  1  0  0  0  0
  9 18  1  0  0  0  0
  7  8  1  0  0  0  0
 18 19  1  0  0  0  0
  1 14  2  0  0  0  0
 19 20  2  0  0  0  0
  8  9  2  0  0  0  0
 18 21  1  0  0  0  0
 13  4  2  0  0  0  0
 18 22  1  0  0  0  0
  9 10  1  0  0  0  0
  6 23  2  0  0  0  0
 17 24  1  0  0  0  0
 10 11  2  0  0  0  0
 13 25  1  0  0  0  0
M  END
> <From>
www.bindingDB.org

> <BindingDB Reactant_set_id>
50357584

> <Ligand InChI>
InChI=1S/C19H18O6/c1-5-19(2,3)14-12(24-4)8-11(21)13-15(22)9-6-7-10(20)16(23)17(9)25-18(13)14/h5-8,20-21,23H,1H2,2-4H3

> <Ligand InChI Key>
PELOBHLTYBBGDO-UHFFFAOYSA-N

> <BindingDB MonomerID>
50175014

> <BindingDB Ligand Name>
1,5,6-trihydroxy-3-methoxy-4-(2-methylbut-3-en-2-yl)-9H-xanthen-9-one::CHEMBL199304::isocudraniaxanthone B

> <Target Name>
Sterol O-acyltransferase 2

> <Target Source Organism According to Curator or DataSource>


> <Ki (nM)>


> <IC50 (nM)>
 132800

> <Kd (nM)>


> <EC50 (nM)>


> <kon (M-1-s-1)>


> <koff (s-1)>


> <pH>


> <Temp (C)>


> <Curation/DataSource>
ChEMBL

> <Article DOI>
10.1016/j.bmcl.2006.08.032

> <BindingDB Entry DOI>
10.7270/Q2PV6K0R

> <PMID>
16919944

> <PubChem AID>


> <Patent Number>


> <Authors>
Park, KH; Park, YD; Han, JM; Im, KR; Lee, BW; Jeong, IY; Jeong, TS; Lee, WS

> <Institution>
National Research Laboratory of Lipid Metabolism and Atherosclerosis

> <Link to Ligand in BindingDB>
http://www.bindingdb.org/bind/chemsearch/marvin/MolStructure.jsp?monomerid=50175014

> <Link to Target in BindingDB>
http://www.bindingdb.org/jsp/dbsearch/PrimarySearch_ki.jsp?energyterm=kJ/mole&tag=pol&polymerid=7773&target=Sterol+O-acyltransferase+2&column=ki&startPg=0&Increment=50&submit=Search

> <Link to Ligand-Target Pair in BindingDB>
http://www.bindingdb.org/jsp/dbsearch/PrimarySearch_ki.jsp?energyterm=kJ/mole&tag=r21&monomerid=50175014&enzyme=Sterol+O-acyltransferase+2&column=ki&startPg=0&Increment=50&submit=Search

> <Ligand HET ID in PDB>


> <PDB ID(s) for Ligand-Target Complex>


> <PubChem CID>
10831150

> <PubChem SID>
104060755

> <ChEBI ID of Ligand>


> <ChEMBL ID of Ligand>
CHEMBL199304

> <DrugBank ID of Ligand>


> <IUPHAR_GRAC ID of Ligand>


> <KEGG ID of Ligand>


> <ZINC ID of Ligand>
ZINC15121022

> <Number of Protein Chains in Target (>1 implies a multichain complex)>
1

> <BindingDB Target Chain Sequence>
MEPGGARLRLQRTEGLGGERERQPCGDGNTETHRAPDLVQWTRHMEAVKAQLLEQAQGQLRELLDRAMREAIQSYPSQDKPLPPPPPGSLSRTQEPSLGKQKVFIIRKSLLDELMEVQHFRTIYHMFIAGLCVFIISTLAIDFIDEGRLLLEFDLLIFSFGQLPLALVTWVPMFLSTLLAPYQALRLWARGTWTQATGLGCALLAAHAVVLCALPVHVAVEHQLPPASRCVLVFEQVRFLMKSYSFLREAVPGTLRARRGEGIQAPSFSSYLYFLFCPTLIYRETYPRTPYVRWNYVAKNFAQALGCVLYACFILGRLCVPVFANMSREPFSTRALVLSILHATLPGIFMLLLIFFAFLHCWLNAFAEMLRFGDRMFYRDWWNSTSFSNYYRTWNVVVHDWLYSYVYQDGLRLLGARARGVAMLGVFLVSAVAHEYIFCFVLGFFYPVMLILFLVIGGMLNFMMHDQRTGPAWNVLMWTMLFLGQGIQVSLYCQEWYARRHCPLPQATFWGLVTPRSWSCHT

> <PDB ID(s) of Target Chain>


> <UniProt (SwissProt) Recommended Name of Target Chain>
Sterol O-acyltransferase 2

> <UniProt (SwissProt) Entry Name of Target Chain>
ACAT-2

> <UniProt (SwissProt) Primary ID of Target Chain>
O75908

> <UniProt (SwissProt) Secondary ID(s) of Target Chain>
F5H7W4 I6L9H9 Q4VB99 Q4VBA1 Q96TD4 Q9UNR2

> <UniProt (SwissProt) Alternative ID(s) of Target Chain>


> <UniProt (TrEMBL) Submitted Name of Target Chain>


> <UniProt (TrEMBL) Entry Name of Target Chain>


> <UniProt (TrEMBL) Primary ID of Target Chain>


> <UniProt (TrEMBL) Secondary ID(s) of Target Chain>


> <UniProt (TrEMBL) Alternative ID(s) of Target Chain>


$$$$
 
  Mrv0541 11221423472D          

 21 22  0  0  0  0            999 V2000
    1.3444  -13.3041    0.0000 C   0  0  0  0  0  0  0  0  0  0  0  0
    1.3432  -14.1315    0.0000 C   0  0  0  0  0  0  0  0  0  0  0  0
    2.0581  -14.5444    0.0000 C   0  0  0  0  0  0  0  0  0  0  0  0
    2.0563  -12.8914    0.0000 C   0  0  0  0  0  0  0  0  0  0  0  0
    2.7716  -13.3005    0.0000 C   0  0  0  0  0  0  0  0  0  0  0  0
    2.7705  -14.1290    0.0000 C   0  0  0  0  0  0  0  0  0  0  0  0
    3.4834  -14.5419    0.0000 C   0  0  0  0  0  0  0  0  0  0  0  0
    4.2021  -14.1310    0.0000 C   0  0  0  0  0  0  0  0  0  0  0  0
    4.2033  -13.3025    0.0000 C   0  0  0  0  0  0  0  0  0  0  0  0
    3.4858  -12.8850    0.0000 C   0  0  0  0  0  0  0  0  0  0  0  0
    3.4858  -12.0600    0.0000 O   0  0  0  0  0  0  0  0  0  0  0  0
    3.4811  -15.3669    0.0000 O   0  0  0  0  0  0  0  0  0  0  0  0
    2.0538  -12.0664    0.0000 O   0  0  0  0  0  0  0  0  0  0  0  0
    2.0597  -15.3694    0.0000 O   0  0  0  0  0  0  0  0  0  0  0  0
    4.9154  -14.5455    0.0000 C   0  0  0  0  0  0  0  0  0  0  0  0
    4.9131  -15.3705    0.0000 O   0  0  0  0  0  0  0  0  0  0  0  0
    5.6310  -14.1350    0.0000 C   0  0  0  0  0  0  0  0  0  0  0  0
    6.3444  -14.5495    0.0000 C   0  0  0  0  0  0  0  0  0  0  0  0
    7.0600  -14.1390    0.0000 C   0  0  0  0  0  0  0  0  0  0  0  0
    7.7733  -14.5535    0.0000 C   0  0  0  0  0  0  0  0  0  0  0  0
    7.0623  -13.3140    0.0000 C   0  0  0  0  0  0  0  0  0  0  0  0
  9 10  2  0  0  0  0
  5  6  1  0  0  0  0
 10 11  1  0  0  0  0
  7 12  1  0  0  0  0
  2  3  1  0  0  0  0
  4 13  1  0  0  0  0
  3  6  2  0  0  0  0
  3 14  1  0  0  0  0
  1  2  2  0  0  0  0
  8 15  1  0  0  0  0
  5  4  2  0  0  0  0
 15 16  2  0  0  0  0
  4  1  1  0  0  0  0
 17 15  1  4  0  0  0
  5 10  1  0  0  0  0
 17 18  2  0  0  0  0
  6  7  1  0  0  0  0
 18 19  1  0  0  0  0
  7  8  2  0  0  0  0
 19 20  1  0  0  0  0
  8  9  1  0  0  0  0
 19 21  1  0  0  0  0
M  END
> <From>
www.bindingDB.org

> <BindingDB Reactant_set_id>
50367867

> <Ligand InChI>
InChI=1S/C16H16O5/c1-8(2)3-4-10(17)9-7-13(20)14-11(18)5-6-12(19)15(14)16(9)21/h3-8,18-21H,1-2H3

> <Ligand InChI Key>
FSWBAMMIGFKJBV-UHFFFAOYSA-N

> <BindingDB MonomerID>
50033731

> <BindingDB Ligand Name>
(R)-5,8-dihydroxy-2-(1-hydroxy-4-methylpent-3-enyl)naphthalene-1,4-dione::5,8-Dihydroxy-2-((R)-1-hydroxy-4-methyl-pent-3-enyl)-[1,4]naphthoquinone::5,8-Dihydroxy-2-(1-hydroxy-4-methyl-pent-3-enyl)-[1,4]naphthoquinone::CHEMBL9470::Shikonin

> <Target Name>
Sterol O-acyltransferase 2

> <Target Source Organism According to Curator or DataSource>


> <Ki (nM)>


> <IC50 (nM)>
 138200

> <Kd (nM)>


> <EC50 (nM)>


> <kon (M-1-s-1)>


> <koff (s-1)>


> <pH>


> <Temp (C)>


> <Curation/DataSource>
ChEMBL

> <Article DOI>
10.1016/j.bmcl.2006.11.024

> <BindingDB Entry DOI>
10.7270/Q2H70FFW

> <PMID>
17157006

> <PubChem AID>


> <Patent Number>


> <Authors>
An, S; Park, YD; Paik, YK; Jeong, TS; Lee, WS

> <Institution>
National Research Laboratory of Lipid Metabolism and Atherosclerosis

> <Link to Ligand in BindingDB>
http://www.bindingdb.org/bind/chemsearch/marvin/MolStructure.jsp?monomerid=50033731

> <Link to Target in BindingDB>
http://www.bindingdb.org/jsp/dbsearch/PrimarySearch_ki.jsp?energyterm=kJ/mole&tag=pol&polymerid=7773&target=Sterol+O-acyltransferase+2&column=ki&startPg=0&Increment=50&submit=Search

> <Link to Ligand-Target Pair in BindingDB>
http://www.bindingdb.org/jsp/dbsearch/PrimarySearch_ki.jsp?energyterm=kJ/mole&tag=r21&monomerid=50033731&enzyme=Sterol+O-acyltransferase+2&column=ki&startPg=0&Increment=50&submit=Search

> <Ligand HET ID in PDB>


> <PDB ID(s) for Ligand-Target Complex>


> <PubChem CID>
91027272

> <PubChem SID>
103941983

> <ChEBI ID of Ligand>


> <ChEMBL ID of Ligand>
CHEMBL9470

> <DrugBank ID of Ligand>


> <IUPHAR_GRAC ID of Ligand>


> <KEGG ID of Ligand>


> <ZINC ID of Ligand>
ZINC02015152

> <Number of Protein Chains in Target (>1 implies a multichain complex)>
1

> <BindingDB Target Chain Sequence>
MEPGGARLRLQRTEGLGGERERQPCGDGNTETHRAPDLVQWTRHMEAVKAQLLEQAQGQLRELLDRAMREAIQSYPSQDKPLPPPPPGSLSRTQEPSLGKQKVFIIRKSLLDELMEVQHFRTIYHMFIAGLCVFIISTLAIDFIDEGRLLLEFDLLIFSFGQLPLALVTWVPMFLSTLLAPYQALRLWARGTWTQATGLGCALLAAHAVVLCALPVHVAVEHQLPPASRCVLVFEQVRFLMKSYSFLREAVPGTLRARRGEGIQAPSFSSYLYFLFCPTLIYRETYPRTPYVRWNYVAKNFAQALGCVLYACFILGRLCVPVFANMSREPFSTRALVLSILHATLPGIFMLLLIFFAFLHCWLNAFAEMLRFGDRMFYRDWWNSTSFSNYYRTWNVVVHDWLYSYVYQDGLRLLGARARGVAMLGVFLVSAVAHEYIFCFVLGFFYPVMLILFLVIGGMLNFMMHDQRTGPAWNVLMWTMLFLGQGIQVSLYCQEWYARRHCPLPQATFWGLVTPRSWSCHT

> <PDB ID(s) of Target Chain>


> <UniProt (SwissProt) Recommended Name of Target Chain>
Sterol O-acyltransferase 2

> <UniProt (SwissProt) Entry Name of Target Chain>
ACAT-2

> <UniProt (SwissProt) Primary ID of Target Chain>
O75908

> <UniProt (SwissProt) Secondary ID(s) of Target Chain>
F5H7W4 I6L9H9 Q4VB99 Q4VBA1 Q96TD4 Q9UNR2

> <UniProt (SwissProt) Alternative ID(s) of Target Chain>


> <UniProt (TrEMBL) Submitted Name of Target Chain>


> <UniProt (TrEMBL) Entry Name of Target Chain>


> <UniProt (TrEMBL) Primary ID of Target Chain>


> <UniProt (TrEMBL) Secondary ID(s) of Target Chain>


> <UniProt (TrEMBL) Alternative ID(s) of Target Chain>


$$$$
 
  Mrv0541 11221402012D          

 28 29  0  0  0  0            999 V2000
   -5.7681  -18.3958    0.0000 C   0  0  0  0  0  0  0  0  0  0  0  0
   -5.7693  -19.2232    0.0000 C   0  0  0  0  0  0  0  0  0  0  0  0
   -5.0544  -19.6360    0.0000 C   0  0  0  0  0  0  0  0  0  0  0  0
   -5.0562  -17.9830    0.0000 C   0  0  0  0  0  0  0  0  0  0  0  0
   -4.3409  -18.3922    0.0000 C   0  0  0  0  0  0  0  0  0  0  0  0
   -4.3420  -19.2206    0.0000 C   0  0  0  0  0  0  0  0  0  0  0  0
   -3.6291  -19.6336    0.0000 C   0  0  0  0  0  0  0  0  0  0  0  0
   -2.9104  -19.2227    0.0000 C   0  0  0  0  0  0  0  0  0  0  0  0
   -2.9092  -18.3942    0.0000 C   0  0  0  0  0  0  0  0  0  0  0  0
   -3.6267  -17.9766    0.0000 C   0  0  0  0  0  0  0  0  0  0  0  0
   -3.6267  -17.1516    0.0000 O   0  0  0  0  0  0  0  0  0  0  0  0
   -3.6314  -20.4586    0.0000 O   0  0  0  0  0  0  0  0  0  0  0  0
   -5.0587  -17.1580    0.0000 O   0  0  0  0  0  0  0  0  0  0  0  0
   -5.0528  -20.4610    0.0000 O   0  0  0  0  0  0  0  0  0  0  0  0
   -2.1971  -19.6372    0.0000 C   0  0  0  0  0  0  0  0  0  0  0  0
   -2.1994  -20.4622    0.0000 O   0  0  0  0  0  0  0  0  0  0  0  0
   -1.4815  -19.2267    0.0000 C   0  0  0  0  0  0  0  0  0  0  0  0
   -0.7681  -19.6411    0.0000 C   0  0  0  0  0  0  0  0  0  0  0  0
   -0.0525  -19.2306    0.0000 C   0  0  0  0  0  0  0  0  0  0  0  0
    0.6608  -19.6451    0.0000 C   0  0  0  0  0  0  0  0  0  0  0  0
   -0.0502  -18.4056    0.0000 C   0  0  0  0  0  0  0  0  0  0  0  0
   -1.4861  -20.8766    0.0000 C   0  0  0  0  0  0  0  0  0  0  0  0
   -1.4884  -21.7016    0.0000 C   0  0  0  0  0  0  0  0  0  0  0  0
   -0.7705  -20.4661    0.0000 O   0  0  0  0  0  0  0  0  0  0  0  0
   -0.7751  -22.1161    0.0000 C   0  0  0  0  0  0  0  0  0  0  0  0
   -0.0667  -22.5250    0.0000 O   0  0  0  0  0  0  0  0  0  0  0  0
   -1.1885  -22.8301    0.0000 C   0  0  0  0  0  0  0  0  0  0  0  0
   -0.3555  -21.4058    0.0000 C   0  0  0  0  0  0  0  0  0  0  0  0
  3  6  2  0  0  0  0
  3 14  1  0  0  0  0
  1  2  2  0  0  0  0
  8 15  1  0  0  0  0
  5  4  2  0  0  0  0
 15 16  1  0  0  0  0
  4  1  1  0  0  0  0
 15 17  2  0  0  0  0
  5 10  1  0  0  0  0
 17 18  1  4  0  0  0
  6  7  1  0  0  0  0
 18 19  2  0  0  0  0
  7  8  2  0  0  0  0
 19 20  1  0  0  0  0
  8  9  1  0  0  0  0
 19 21  1  0  0  0  0
  9 10  2  0  0  0  0
 16 22  1  0  0  0  0
  5  6  1  0  0  0  0
 22 23  1  0  0  0  0
 10 11  1  0  0  0  0
 22 24  2  0  0  0  0
 23 25  1  0  0  0  0
  7 12  1  0  0  0  0
 25 26  1  0  0  0  0
  2  3  1  0  0  0  0
 25 27  1  0  0  0  0
  4 13  1  0  0  0  0
 25 28  1  0  0  0  0
M  END
> <From>
www.bindingDB.org

> <BindingDB Reactant_set_id>
50367883

> <Ligand InChI>
InChI=1S/C21H24O7/c1-11(2)5-8-16(28-17(25)10-21(3,4)27)12-9-15(24)18-13(22)6-7-14(23)19(18)20(12)26/h5-9,22-24,26-27H,10H2,1-4H3

> <Ligand InChI Key>
JXQWCYSOEQPQDH-UHFFFAOYSA-N

> <BindingDB MonomerID>
50200395

> <BindingDB Ligand Name>
(R)-1-(5,8-dihydroxy-1,4-dioxo-1,4-dihydronaphthalen-2-yl)-4-methylpent-3-enyl 3-hydroxy-3-methylbutanoate::3'-Hydroxyisovalerylshikonin::CHEMBL397309

> <Target Name>
Sterol O-acyltransferase 2

> <Target Source Organism According to Curator or DataSource>


> <Ki (nM)>


> <IC50 (nM)>
 169800

> <Kd (nM)>


> <EC50 (nM)>


> <kon (M-1-s-1)>


> <koff (s-1)>


> <pH>


> <Temp (C)>


> <Curation/DataSource>
ChEMBL

> <Article DOI>
10.1016/j.bmcl.2006.11.024

> <BindingDB Entry DOI>
10.7270/Q2H70FFW

> <PMID>
17157006

> <PubChem AID>


> <Patent Number>


> <Authors>
An, S; Park, YD; Paik, YK; Jeong, TS; Lee, WS

> <Institution>
National Research Laboratory of Lipid Metabolism and Atherosclerosis

> <Link to Ligand in BindingDB>
http://www.bindingdb.org/bind/chemsearch/marvin/MolStructure.jsp?monomerid=50200395

> <Link to Target in BindingDB>
http://www.bindingdb.org/jsp/dbsearch/PrimarySearch_ki.jsp?energyterm=kJ/mole&tag=pol&polymerid=7773&target=Sterol+O-acyltransferase+2&column=ki&startPg=0&Increment=50&submit=Search

> <Link to Ligand-Target Pair in BindingDB>
http://www.bindingdb.org/jsp/dbsearch/PrimarySearch_ki.jsp?energyterm=kJ/mole&tag=r21&monomerid=50200395&enzyme=Sterol+O-acyltransferase+2&column=ki&startPg=0&Increment=50&submit=Search

> <Ligand HET ID in PDB>


> <PDB ID(s) for Ligand-Target Complex>


> <PubChem CID>
91936075

> <PubChem SID>
104080729

> <ChEBI ID of Ligand>


> <ChEMBL ID of Ligand>
CHEMBL397309

> <DrugBank ID of Ligand>


> <IUPHAR_GRAC ID of Ligand>


> <KEGG ID of Ligand>


> <ZINC ID of Ligand>
ZINC02525131

> <Number of Protein Chains in Target (>1 implies a multichain complex)>
1

> <BindingDB Target Chain Sequence>
MEPGGARLRLQRTEGLGGERERQPCGDGNTETHRAPDLVQWTRHMEAVKAQLLEQAQGQLRELLDRAMREAIQSYPSQDKPLPPPPPGSLSRTQEPSLGKQKVFIIRKSLLDELMEVQHFRTIYHMFIAGLCVFIISTLAIDFIDEGRLLLEFDLLIFSFGQLPLALVTWVPMFLSTLLAPYQALRLWARGTWTQATGLGCALLAAHAVVLCALPVHVAVEHQLPPASRCVLVFEQVRFLMKSYSFLREAVPGTLRARRGEGIQAPSFSSYLYFLFCPTLIYRETYPRTPYVRWNYVAKNFAQALGCVLYACFILGRLCVPVFANMSREPFSTRALVLSILHATLPGIFMLLLIFFAFLHCWLNAFAEMLRFGDRMFYRDWWNSTSFSNYYRTWNVVVHDWLYSYVYQDGLRLLGARARGVAMLGVFLVSAVAHEYIFCFVLGFFYPVMLILFLVIGGMLNFMMHDQRTGPAWNVLMWTMLFLGQGIQVSLYCQEWYARRHCPLPQATFWGLVTPRSWSCHT

> <PDB ID(s) of Target Chain>


> <UniProt (SwissProt) Recommended Name of Target Chain>
Sterol O-acyltransferase 2

> <UniProt (SwissProt) Entry Name of Target Chain>
ACAT-2

> <UniProt (SwissProt) Primary ID of Target Chain>
O75908

> <UniProt (SwissProt) Secondary ID(s) of Target Chain>
F5H7W4 I6L9H9 Q4VB99 Q4VBA1 Q96TD4 Q9UNR2

> <UniProt (SwissProt) Alternative ID(s) of Target Chain>


> <UniProt (TrEMBL) Submitted Name of Target Chain>


> <UniProt (TrEMBL) Entry Name of Target Chain>


> <UniProt (TrEMBL) Primary ID of Target Chain>


> <UniProt (TrEMBL) Secondary ID(s) of Target Chain>


> <UniProt (TrEMBL) Alternative ID(s) of Target Chain>


$$$$
 
  Mrv0541 11221409282D          

 18 20  0  0  0  0            999 V2000
   13.3583    1.5390    0.0000 C   0  0  0  0  0  0  0  0  0  0  0  0
   13.3583    0.7140    0.0000 C   0  0  0  0  0  0  0  0  0  0  0  0
   14.0712    0.3098    0.0000 C   0  0  0  0  0  0  0  0  0  0  0  0
   14.0712    1.9558    0.0000 C   0  0  0  0  0  0  0  0  0  0  0  0
   14.7797    1.5390    0.0000 C   0  0  1  0  0  0  0  0  0  0  0  0
   14.7813    0.7140    0.0000 C   0  0  1  0  0  0  0  0  0  0  0  0
   15.4926    0.3083    0.0000 C   0  0  0  0  0  0  0  0  0  0  0  0
   15.4894    1.9543    0.0000 C   0  0  0  0  0  0  0  0  0  0  0  0
   16.2035    1.5417    0.0000 C   0  0  0  0  0  0  0  0  0  0  0  0
   16.2089    0.7151    0.0000 C   0  0  1  0  0  0  0  0  0  0  0  0
   16.9969    0.4626    0.0000 O   0  0  0  0  0  0  0  0  0  0  0  0
   17.4782    1.1327    0.0000 C   0  0  0  0  0  0  0  0  0  0  0  0
   16.9881    1.8003    0.0000 C   0  0  0  0  0  0  0  0  0  0  0  0
   17.2428    2.5868    0.0000 C   0  0  0  0  0  0  0  0  0  0  0  0
   14.7791   -0.1049    0.0000 C   0  0  0  0  0  0  0  0  0  0  0  0
   14.0712    2.7808    0.0000 C   0  0  0  0  0  0  0  0  0  0  0  0
   18.3033    1.1381    0.0000 O   0  0  0  0  0  0  0  0  0  0  0  0
   16.4166   -0.0796    0.0000 O   0  0  0  0  0  0  0  0  0  0  0  0
  1  2  1  0  0  0  0
  1  4  1  0  0  0  0
  2  3  1  0  0  0  0
  6  3  1  0  0  0  0
  5  4  1  6  0  0  0
  5  6  1  0  0  0  0
  5  8  1  0  0  0  0
  6  7  1  0  0  0  0
 10  7  1  0  0  0  0
  9  8  1  0  0  0  0
 10  9  1  0  0  0  0
 10 11  1  0  0  0  0
 11 12  1  0  0  0  0
 12 13  1  0  0  0  0
 13  9  2  0  0  0  0
 13 14  1  0  0  0  0
  6 15  1  6  0  0  0
  4 16  2  0  0  0  0
 12 17  2  0  0  0  0
 10 18  1  6  0  0  0
M  END
> <From>
www.bindingDB.org

> <BindingDB Reactant_set_id>
51346963

> <Ligand InChI>
InChI=1S/C15H20O3/c1-9-5-4-6-14(3)8-15(17)12(7-11(9)14)10(2)13(16)18-15/h11,17H,1,4-8H2,2-3H3/t11-,14+,15-/m0/s1

> <Ligand InChI Key>
FBMORZZOJSDNRQ-GLQYFDAESA-N

> <BindingDB MonomerID>
50241945

> <BindingDB Ligand Name>
Atractylenolide III::CHEMBL486961

> <Target Name>
Sterol O-acyltransferase 2

> <Target Source Organism According to Curator or DataSource>


> <Ki (nM)>


> <IC50 (nM)>
 187300

> <Kd (nM)>


> <EC50 (nM)>


> <kon (M-1-s-1)>


> <koff (s-1)>


> <pH>


> <Temp (C)>


> <Curation/DataSource>
ChEMBL

> <Article DOI>


> <BindingDB Entry DOI>
10.7270/Q2G73J95

> <PMID>
32035699

> <PubChem AID>


> <Patent Number>


> <Authors>
Nur, EAA; Ohshiro, T; Kobayashi, K; Wu, J; Wahyudin, E; Zhang, H; Hayashi, F; Kawagishi, H; Tomoda, H

> <Institution>
Kitasato University

> <Link to Ligand in BindingDB>
http://www.bindingdb.org/bind/chemsearch/marvin/MolStructure.jsp?monomerid=50241945

> <Link to Target in BindingDB>
http://www.bindingdb.org/jsp/dbsearch/PrimarySearch_ki.jsp?energyterm=kJ/mole&tag=pol&polymerid=7773&target=Sterol+O-acyltransferase+2&column=ki&startPg=0&Increment=50&submit=Search

> <Link to Ligand-Target Pair in BindingDB>
http://www.bindingdb.org/jsp/dbsearch/PrimarySearch_ki.jsp?energyterm=kJ/mole&tag=r21&monomerid=50241945&enzyme=Sterol+O-acyltransferase+2&column=ki&startPg=0&Increment=50&submit=Search

> <Ligand HET ID in PDB>


> <PDB ID(s) for Ligand-Target Complex>


> <PubChem CID>
155948

> <PubChem SID>
104098916

> <ChEBI ID of Ligand>
69958

> <ChEMBL ID of Ligand>
CHEMBL486961

> <DrugBank ID of Ligand>


> <IUPHAR_GRAC ID of Ligand>


> <KEGG ID of Ligand>


> <ZINC ID of Ligand>
ZINC05373275

> <Number of Protein Chains in Target (>1 implies a multichain complex)>
1

> <BindingDB Target Chain Sequence>
MEPGGARLRLQRTEGLGGERERQPCGDGNTETHRAPDLVQWTRHMEAVKAQLLEQAQGQLRELLDRAMREAIQSYPSQDKPLPPPPPGSLSRTQEPSLGKQKVFIIRKSLLDELMEVQHFRTIYHMFIAGLCVFIISTLAIDFIDEGRLLLEFDLLIFSFGQLPLALVTWVPMFLSTLLAPYQALRLWARGTWTQATGLGCALLAAHAVVLCALPVHVAVEHQLPPASRCVLVFEQVRFLMKSYSFLREAVPGTLRARRGEGIQAPSFSSYLYFLFCPTLIYRETYPRTPYVRWNYVAKNFAQALGCVLYACFILGRLCVPVFANMSREPFSTRALVLSILHATLPGIFMLLLIFFAFLHCWLNAFAEMLRFGDRMFYRDWWNSTSFSNYYRTWNVVVHDWLYSYVYQDGLRLLGARARGVAMLGVFLVSAVAHEYIFCFVLGFFYPVMLILFLVIGGMLNFMMHDQRTGPAWNVLMWTMLFLGQGIQVSLYCQEWYARRHCPLPQATFWGLVTPRSWSCHT

> <PDB ID(s) of Target Chain>


> <UniProt (SwissProt) Recommended Name of Target Chain>
Sterol O-acyltransferase 2

> <UniProt (SwissProt) Entry Name of Target Chain>
ACAT-2

> <UniProt (SwissProt) Primary ID of Target Chain>
O75908

> <UniProt (SwissProt) Secondary ID(s) of Target Chain>
F5H7W4 I6L9H9 Q4VB99 Q4VBA1 Q96TD4 Q9UNR2

> <UniProt (SwissProt) Alternative ID(s) of Target Chain>


> <UniProt (TrEMBL) Submitted Name of Target Chain>


> <UniProt (TrEMBL) Entry Name of Target Chain>


> <UniProt (TrEMBL) Primary ID of Target Chain>


> <UniProt (TrEMBL) Secondary ID(s) of Target Chain>


> <UniProt (TrEMBL) Alternative ID(s) of Target Chain>


$$$$

  Mrv0541 11241407572D          

 22 23  0  0  0  0            999 V2000
   -3.4014    0.0584    0.0000 C   0  0  0  0  0  0  0  0  0  0  0  0
   -3.4026   -0.7690    0.0000 C   0  0  0  0  0  0  0  0  0  0  0  0
   -2.6878   -1.1819    0.0000 C   0  0  0  0  0  0  0  0  0  0  0  0
   -1.9713   -0.7685    0.0000 C   0  0  0  0  0  0  0  0  0  0  0  0
   -1.9742    0.0620    0.0000 C   0  0  0  0  0  0  0  0  0  0  0  0
   -2.6896    0.4711    0.0000 C   0  0  0  0  0  0  0  0  0  0  0  0
   -2.6920    1.2961    0.0000 N   0  0  0  0  0  0  0  0  0  0  0  0
   -1.9788    1.7108    0.0000 C   0  0  0  0  0  0  0  0  0  0  0  0
   -1.9813    2.5358    0.0000 O   0  0  0  0  0  0  0  0  0  0  0  0
   -1.2631    1.3004    0.0000 C   0  0  0  0  0  0  0  0  0  0  0  0
   -0.5499    1.7150    0.0000 C   0  0  0  0  0  0  0  0  0  0  0  0
    0.1658    1.3047    0.0000 C   0  0  0  0  0  0  0  0  0  0  0  0
    0.8791    1.7193    0.0000 C   0  0  0  0  0  0  0  0  0  0  0  0
    1.5948    1.3089    0.0000 C   0  0  0  0  0  0  0  0  0  0  0  0
    2.3080    1.7236    0.0000 C   0  0  0  0  0  0  0  0  0  0  0  0
    3.0237    1.3132    0.0000 C   0  0  0  0  0  0  0  0  0  0  0  0
   -4.1139    0.4705    0.0000 C   0  0  0  0  0  0  0  0  0  0  0  0
   -4.1128    1.2966    0.0000 C   0  0  0  0  0  0  0  0  0  0  0  0
   -4.8265    1.7089    0.0000 C   0  0  0  0  0  0  0  0  0  0  0  0
   -5.5418    1.2962    0.0000 C   0  0  0  0  0  0  0  0  0  0  0  0
   -5.5390    0.4669    0.0000 C   0  0  0  0  0  0  0  0  0  0  0  0
   -4.8247    0.0584    0.0000 C   0  0  0  0  0  0  0  0  0  0  0  0
 10 11  1  0  0  0  0
  5  6  1  0  0  0  0
 11 12  1  0  0  0  0
  6  1  2  0  0  0  0
 12 13  1  0  0  0  0
  1  2  1  0  0  0  0
 13 14  1  0  0  0  0
  6  7  1  0  0  0  0
 14 15  1  0  0  0  0
  3  4  1  0  0  0  0
 15 16  1  0  0  0  0
  7  8  1  0  0  0  0
 17 18  2  0  0  0  0
  8  9  2  0  0  0  0
 18 19  1  0  0  0  0
  4  5  2  0  0  0  0
 19 20  2  0  0  0  0
  8 10  1  0  0  0  0
 20 21  1  0  0  0  0
  2  3  2  0  0  0  0
 21 22  2  0  0  0  0
 22 17  1  0  0  0  0
  1 17  1  0  0  0  0
M  END
> <From>
www.bindingDB.org

> <BindingDB Reactant_set_id>
330437

> <Ligand InChI>
InChI=1S/C20H25NO/c1-2-3-4-5-9-16-20(22)21-19-15-11-10-14-18(19)17-12-7-6-8-13-17/h6-8,10-15H,2-5,9,16H2,1H3,(H,21,22)

> <Ligand InChI Key>
CLTPDJWVYAJEKC-UHFFFAOYSA-N

> <BindingDB MonomerID>
50371698

> <BindingDB Ligand Name>
CHEMBL408322::US9149492, 1

> <Target Name>
Sterol O-acyltransferase 2

> <Target Source Organism According to Curator or DataSource>


> <Ki (nM)>


> <IC50 (nM)>
 230000

> <Kd (nM)>


> <EC50 (nM)>


> <kon (M-1-s-1)>


> <koff (s-1)>


> <pH>


> <Temp (C)>


> <Curation/DataSource>
US Patent

> <Article DOI>


> <BindingDB Entry DOI>
10.7270/Q2N015BF

> <PMID>


> <PubChem AID>
aid1801692

> <Patent Number>
US9149492

> <Authors>
Chang, T; Chang, CC; Shibuya, Y; Bryleva, E; Murphy, S; Rogers, MA

> <Institution>
Dartmouth College

> <Link to Ligand in BindingDB>
http://www.bindingdb.org/bind/chemsearch/marvin/MolStructure.jsp?monomerid=50371698

> <Link to Target in BindingDB>
http://www.bindingdb.org/jsp/dbsearch/PrimarySearch_ki.jsp?energyterm=kJ/mole&tag=pol&polymerid=7773&target=Sterol+O-acyltransferase+2&column=ki&startPg=0&Increment=50&submit=Search

> <Link to Ligand-Target Pair in BindingDB>
http://www.bindingdb.org/jsp/dbsearch/PrimarySearch_ki.jsp?energyterm=kJ/mole&tag=r21&monomerid=50371698&enzyme=Sterol+O-acyltransferase+2&column=ki&startPg=0&Increment=50&submit=Search

> <Ligand HET ID in PDB>


> <PDB ID(s) for Ligand-Target Complex>


> <PubChem CID>
24806280

> <PubChem SID>
160850799

> <ChEBI ID of Ligand>


> <ChEMBL ID of Ligand>
CHEMBL408322

> <DrugBank ID of Ligand>


> <IUPHAR_GRAC ID of Ligand>


> <KEGG ID of Ligand>
C16236

> <ZINC ID of Ligand>
ZINC44146158

> <Number of Protein Chains in Target (>1 implies a multichain complex)>
1

> <BindingDB Target Chain Sequence>
MEPGGARLRLQRTEGLGGERERQPCGDGNTETHRAPDLVQWTRHMEAVKAQLLEQAQGQLRELLDRAMREAIQSYPSQDKPLPPPPPGSLSRTQEPSLGKQKVFIIRKSLLDELMEVQHFRTIYHMFIAGLCVFIISTLAIDFIDEGRLLLEFDLLIFSFGQLPLALVTWVPMFLSTLLAPYQALRLWARGTWTQATGLGCALLAAHAVVLCALPVHVAVEHQLPPASRCVLVFEQVRFLMKSYSFLREAVPGTLRARRGEGIQAPSFSSYLYFLFCPTLIYRETYPRTPYVRWNYVAKNFAQALGCVLYACFILGRLCVPVFANMSREPFSTRALVLSILHATLPGIFMLLLIFFAFLHCWLNAFAEMLRFGDRMFYRDWWNSTSFSNYYRTWNVVVHDWLYSYVYQDGLRLLGARARGVAMLGVFLVSAVAHEYIFCFVLGFFYPVMLILFLVIGGMLNFMMHDQRTGPAWNVLMWTMLFLGQGIQVSLYCQEWYARRHCPLPQATFWGLVTPRSWSCHT

> <PDB ID(s) of Target Chain>


> <UniProt (SwissProt) Recommended Name of Target Chain>
Sterol O-acyltransferase 2

> <UniProt (SwissProt) Entry Name of Target Chain>
ACAT-2

> <UniProt (SwissProt) Primary ID of Target Chain>
O75908

> <UniProt (SwissProt) Secondary ID(s) of Target Chain>
F5H7W4 I6L9H9 Q4VB99 Q4VBA1 Q96TD4 Q9UNR2

> <UniProt (SwissProt) Alternative ID(s) of Target Chain>


> <UniProt (TrEMBL) Submitted Name of Target Chain>


> <UniProt (TrEMBL) Entry Name of Target Chain>


> <UniProt (TrEMBL) Primary ID of Target Chain>


> <UniProt (TrEMBL) Secondary ID(s) of Target Chain>


> <UniProt (TrEMBL) Alternative ID(s) of Target Chain>


$$$$

  Mrv0541 11241407572D          

 22 23  0  0  0  0            999 V2000
   -3.4014    0.0584    0.0000 C   0  0  0  0  0  0  0  0  0  0  0  0
   -3.4026   -0.7690    0.0000 C   0  0  0  0  0  0  0  0  0  0  0  0
   -2.6878   -1.1819    0.0000 C   0  0  0  0  0  0  0  0  0  0  0  0
   -1.9713   -0.7685    0.0000 C   0  0  0  0  0  0  0  0  0  0  0  0
   -1.9742    0.0620    0.0000 C   0  0  0  0  0  0  0  0  0  0  0  0
   -2.6896    0.4711    0.0000 C   0  0  0  0  0  0  0  0  0  0  0  0
   -2.6920    1.2961    0.0000 N   0  0  0  0  0  0  0  0  0  0  0  0
   -1.9788    1.7108    0.0000 C   0  0  0  0  0  0  0  0  0  0  0  0
   -1.9813    2.5358    0.0000 O   0  0  0  0  0  0  0  0  0  0  0  0
   -1.2631    1.3004    0.0000 C   0  0  0  0  0  0  0  0  0  0  0  0
   -0.5499    1.7150    0.0000 C   0  0  0  0  0  0  0  0  0  0  0  0
    0.1658    1.3047    0.0000 C   0  0  0  0  0  0  0  0  0  0  0  0
    0.8791    1.7193    0.0000 C   0  0  0  0  0  0  0  0  0  0  0  0
    1.5948    1.3089    0.0000 C   0  0  0  0  0  0  0  0  0  0  0  0
    2.3080    1.7236    0.0000 C   0  0  0  0  0  0  0  0  0  0  0  0
    3.0237    1.3132    0.0000 C   0  0  0  0  0  0  0  0  0  0  0  0
   -4.1139    0.4705    0.0000 C   0  0  0  0  0  0  0  0  0  0  0  0
   -4.1128    1.2966    0.0000 C   0  0  0  0  0  0  0  0  0  0  0  0
   -4.8265    1.7089    0.0000 C   0  0  0  0  0  0  0  0  0  0  0  0
   -5.5418    1.2962    0.0000 C   0  0  0  0  0  0  0  0  0  0  0  0
   -5.5390    0.4669    0.0000 C   0  0  0  0  0  0  0  0  0  0  0  0
   -4.8247    0.0584    0.0000 C   0  0  0  0  0  0  0  0  0  0  0  0
 10 11  1  0  0  0  0
  5  6  1  0  0  0  0
 11 12  1  0  0  0  0
  6  1  2  0  0  0  0
 12 13  1  0  0  0  0
  1  2  1  0  0  0  0
 13 14  1  0  0  0  0
  6  7  1  0  0  0  0
 14 15  1  0  0  0  0
  3  4  1  0  0  0  0
 15 16  1  0  0  0  0
  7  8  1  0  0  0  0
 17 18  2  0  0  0  0
  8  9  2  0  0  0  0
 18 19  1  0  0  0  0
  4  5  2  0  0  0  0
 19 20  2  0  0  0  0
  8 10  1  0  0  0  0
 20 21  1  0  0  0  0
  2  3  2  0  0  0  0
 21 22  2  0  0  0  0
 22 17  1  0  0  0  0
  1 17  1  0  0  0  0
M  END
> <From>
www.bindingDB.org

> <BindingDB Reactant_set_id>
50855129

> <Ligand InChI>
InChI=1S/C20H25NO/c1-2-3-4-5-9-16-20(22)21-19-15-11-10-14-18(19)17-12-7-6-8-13-17/h6-8,10-15H,2-5,9,16H2,1H3,(H,21,22)

> <Ligand InChI Key>
CLTPDJWVYAJEKC-UHFFFAOYSA-N

> <BindingDB MonomerID>
50371698

> <BindingDB Ligand Name>
CHEMBL408322::US9149492, 1

> <Target Name>
Sterol O-acyltransferase 2

> <Target Source Organism According to Curator or DataSource>


> <Ki (nM)>


> <IC50 (nM)>
 230000

> <Kd (nM)>


> <EC50 (nM)>


> <kon (M-1-s-1)>


> <koff (s-1)>


> <pH>


> <Temp (C)>


> <Curation/DataSource>
ChEMBL

> <Article DOI>
10.1021/jm701474c

> <BindingDB Entry DOI>
10.7270/Q2WQ04N3

> <PMID>
18284184

> <PubChem AID>


> <Patent Number>


> <Authors>
Gelain, A; Barlocco, D; Kwon, BM; Jeong, TS; Im, KR; Legnani, L; Toma, L

> <Institution>
Universita di Milano

> <Link to Ligand in BindingDB>
http://www.bindingdb.org/bind/chemsearch/marvin/MolStructure.jsp?monomerid=50371698

> <Link to Target in BindingDB>
http://www.bindingdb.org/jsp/dbsearch/PrimarySearch_ki.jsp?energyterm=kJ/mole&tag=pol&polymerid=7773&target=Sterol+O-acyltransferase+2&column=ki&startPg=0&Increment=50&submit=Search

> <Link to Ligand-Target Pair in BindingDB>
http://www.bindingdb.org/jsp/dbsearch/PrimarySearch_ki.jsp?energyterm=kJ/mole&tag=r21&monomerid=50371698&enzyme=Sterol+O-acyltransferase+2&column=ki&startPg=0&Increment=50&submit=Search

> <Ligand HET ID in PDB>


> <PDB ID(s) for Ligand-Target Complex>


> <PubChem CID>
24806280

> <PubChem SID>
160850799

> <ChEBI ID of Ligand>


> <ChEMBL ID of Ligand>
CHEMBL408322

> <DrugBank ID of Ligand>


> <IUPHAR_GRAC ID of Ligand>


> <KEGG ID of Ligand>
C16236

> <ZINC ID of Ligand>
ZINC44146158

> <Number of Protein Chains in Target (>1 implies a multichain complex)>
1

> <BindingDB Target Chain Sequence>
MEPGGARLRLQRTEGLGGERERQPCGDGNTETHRAPDLVQWTRHMEAVKAQLLEQAQGQLRELLDRAMREAIQSYPSQDKPLPPPPPGSLSRTQEPSLGKQKVFIIRKSLLDELMEVQHFRTIYHMFIAGLCVFIISTLAIDFIDEGRLLLEFDLLIFSFGQLPLALVTWVPMFLSTLLAPYQALRLWARGTWTQATGLGCALLAAHAVVLCALPVHVAVEHQLPPASRCVLVFEQVRFLMKSYSFLREAVPGTLRARRGEGIQAPSFSSYLYFLFCPTLIYRETYPRTPYVRWNYVAKNFAQALGCVLYACFILGRLCVPVFANMSREPFSTRALVLSILHATLPGIFMLLLIFFAFLHCWLNAFAEMLRFGDRMFYRDWWNSTSFSNYYRTWNVVVHDWLYSYVYQDGLRLLGARARGVAMLGVFLVSAVAHEYIFCFVLGFFYPVMLILFLVIGGMLNFMMHDQRTGPAWNVLMWTMLFLGQGIQVSLYCQEWYARRHCPLPQATFWGLVTPRSWSCHT

> <PDB ID(s) of Target Chain>


> <UniProt (SwissProt) Recommended Name of Target Chain>
Sterol O-acyltransferase 2

> <UniProt (SwissProt) Entry Name of Target Chain>
ACAT-2

> <UniProt (SwissProt) Primary ID of Target Chain>
O75908

> <UniProt (SwissProt) Secondary ID(s) of Target Chain>
F5H7W4 I6L9H9 Q4VB99 Q4VBA1 Q96TD4 Q9UNR2

> <UniProt (SwissProt) Alternative ID(s) of Target Chain>


> <UniProt (TrEMBL) Submitted Name of Target Chain>


> <UniProt (TrEMBL) Entry Name of Target Chain>


> <UniProt (TrEMBL) Primary ID of Target Chain>


> <UniProt (TrEMBL) Secondary ID(s) of Target Chain>


> <UniProt (TrEMBL) Alternative ID(s) of Target Chain>


$$$$

  Mrv0541 11241407572D          

 23 24  0  0  0  0            999 V2000
   -3.4264   -6.1791    0.0000 C   0  0  0  0  0  0  0  0  0  0  0  0
   -3.4276   -7.0065    0.0000 C   0  0  0  0  0  0  0  0  0  0  0  0
   -2.7128   -7.4194    0.0000 C   0  0  0  0  0  0  0  0  0  0  0  0
   -1.9963   -7.0060    0.0000 C   0  0  0  0  0  0  0  0  0  0  0  0
   -1.9992   -6.1755    0.0000 C   0  0  0  0  0  0  0  0  0  0  0  0
   -2.7146   -5.7664    0.0000 C   0  0  0  0  0  0  0  0  0  0  0  0
   -2.7170   -4.9414    0.0000 N   0  0  0  0  0  0  0  0  0  0  0  0
   -2.0038   -4.5267    0.0000 C   0  0  0  0  0  0  0  0  0  0  0  0
   -2.0063   -3.7017    0.0000 O   0  0  0  0  0  0  0  0  0  0  0  0
   -1.2881   -4.9371    0.0000 C   0  0  0  0  0  0  0  0  0  0  0  0
   -0.5749   -4.5225    0.0000 C   0  0  0  0  0  0  0  0  0  0  0  0
    0.1408   -4.9328    0.0000 C   0  0  0  0  0  0  0  0  0  0  0  0
    0.8541   -4.5182    0.0000 C   0  0  0  0  0  0  0  0  0  0  0  0
    1.5698   -4.9286    0.0000 C   0  0  0  0  0  0  0  0  0  0  0  0
    2.2830   -4.5139    0.0000 C   0  0  0  0  0  0  0  0  0  0  0  0
    2.9987   -4.9243    0.0000 C   0  0  0  0  0  0  0  0  0  0  0  0
   -4.1389   -5.7670    0.0000 C   0  0  0  0  0  0  0  0  0  0  0  0
   -4.1378   -4.9409    0.0000 C   0  0  0  0  0  0  0  0  0  0  0  0
   -4.8515   -4.5286    0.0000 C   0  0  0  0  0  0  0  0  0  0  0  0
   -5.5668   -4.9413    0.0000 C   0  0  0  0  0  0  0  0  0  0  0  0
   -5.5640   -5.7706    0.0000 C   0  0  0  0  0  0  0  0  0  0  0  0
   -4.8497   -6.1791    0.0000 C   0  0  0  0  0  0  0  0  0  0  0  0
    3.0012   -5.7493    0.0000 C   0  0  0  0  0  0  0  0  0  0  0  0
  5  6  1  0  0  0  0
 11 12  1  0  0  0  0
  6  1  2  0  0  0  0
 12 13  1  0  0  0  0
  1  2  1  0  0  0  0
 13 14  1  0  0  0  0
  6  7  1  0  0  0  0
 14 15  1  0  0  0  0
  3  4  1  0  0  0  0
 15 16  1  0  0  0  0
  7  8  1  0  0  0  0
 17 18  2  0  0  0  0
  8  9  2  0  0  0  0
 18 19  1  0  0  0  0
  4  5  2  0  0  0  0
 19 20  2  0  0  0  0
  8 10  1  0  0  0  0
 20 21  1  0  0  0  0
  2  3  2  0  0  0  0
 21 22  2  0  0  0  0
 22 17  1  0  0  0  0
  1 17  1  0  0  0  0
 10 11  1  0  0  0  0
 16 23  1  0  0  0  0
M  END
> <From>
www.bindingDB.org

> <BindingDB Reactant_set_id>
330438

> <Ligand InChI>
InChI=1S/C21H27NO/c1-2-3-4-5-6-10-17-21(23)22-20-16-12-11-15-19(20)18-13-8-7-9-14-18/h7-9,11-16H,2-6,10,17H2,1H3,(H,22,23)

> <Ligand InChI Key>
QOVZQINZWUSANF-UHFFFAOYSA-N

> <BindingDB MonomerID>
50371699

> <BindingDB Ligand Name>
CHEMBL270041::US9149492, 2

> <Target Name>
Sterol O-acyltransferase 2

> <Target Source Organism According to Curator or DataSource>


> <Ki (nM)>


> <IC50 (nM)>
 414000

> <Kd (nM)>


> <EC50 (nM)>


> <kon (M-1-s-1)>


> <koff (s-1)>


> <pH>


> <Temp (C)>


> <Curation/DataSource>
US Patent

> <Article DOI>


> <BindingDB Entry DOI>
10.7270/Q2N015BF

> <PMID>


> <PubChem AID>
aid1801692

> <Patent Number>
US9149492

> <Authors>
Chang, T; Chang, CC; Shibuya, Y; Bryleva, E; Murphy, S; Rogers, MA

> <Institution>
Dartmouth College

> <Link to Ligand in BindingDB>
http://www.bindingdb.org/bind/chemsearch/marvin/MolStructure.jsp?monomerid=50371699

> <Link to Target in BindingDB>
http://www.bindingdb.org/jsp/dbsearch/PrimarySearch_ki.jsp?energyterm=kJ/mole&tag=pol&polymerid=7773&target=Sterol+O-acyltransferase+2&column=ki&startPg=0&Increment=50&submit=Search

> <Link to Ligand-Target Pair in BindingDB>
http://www.bindingdb.org/jsp/dbsearch/PrimarySearch_ki.jsp?energyterm=kJ/mole&tag=r21&monomerid=50371699&enzyme=Sterol+O-acyltransferase+2&column=ki&startPg=0&Increment=50&submit=Search

> <Ligand HET ID in PDB>


> <PDB ID(s) for Ligand-Target Complex>


> <PubChem CID>
24806277

> <PubChem SID>
160850800

> <ChEBI ID of Ligand>


> <ChEMBL ID of Ligand>
CHEMBL270041

> <DrugBank ID of Ligand>


> <IUPHAR_GRAC ID of Ligand>


> <KEGG ID of Ligand>


> <ZINC ID of Ligand>
ZINC43640919

> <Number of Protein Chains in Target (>1 implies a multichain complex)>
1

> <BindingDB Target Chain Sequence>
MEPGGARLRLQRTEGLGGERERQPCGDGNTETHRAPDLVQWTRHMEAVKAQLLEQAQGQLRELLDRAMREAIQSYPSQDKPLPPPPPGSLSRTQEPSLGKQKVFIIRKSLLDELMEVQHFRTIYHMFIAGLCVFIISTLAIDFIDEGRLLLEFDLLIFSFGQLPLALVTWVPMFLSTLLAPYQALRLWARGTWTQATGLGCALLAAHAVVLCALPVHVAVEHQLPPASRCVLVFEQVRFLMKSYSFLREAVPGTLRARRGEGIQAPSFSSYLYFLFCPTLIYRETYPRTPYVRWNYVAKNFAQALGCVLYACFILGRLCVPVFANMSREPFSTRALVLSILHATLPGIFMLLLIFFAFLHCWLNAFAEMLRFGDRMFYRDWWNSTSFSNYYRTWNVVVHDWLYSYVYQDGLRLLGARARGVAMLGVFLVSAVAHEYIFCFVLGFFYPVMLILFLVIGGMLNFMMHDQRTGPAWNVLMWTMLFLGQGIQVSLYCQEWYARRHCPLPQATFWGLVTPRSWSCHT

> <PDB ID(s) of Target Chain>


> <UniProt (SwissProt) Recommended Name of Target Chain>
Sterol O-acyltransferase 2

> <UniProt (SwissProt) Entry Name of Target Chain>
ACAT-2

> <UniProt (SwissProt) Primary ID of Target Chain>
O75908

> <UniProt (SwissProt) Secondary ID(s) of Target Chain>
F5H7W4 I6L9H9 Q4VB99 Q4VBA1 Q96TD4 Q9UNR2

> <UniProt (SwissProt) Alternative ID(s) of Target Chain>


> <UniProt (TrEMBL) Submitted Name of Target Chain>


> <UniProt (TrEMBL) Entry Name of Target Chain>


> <UniProt (TrEMBL) Primary ID of Target Chain>


> <UniProt (TrEMBL) Secondary ID(s) of Target Chain>


> <UniProt (TrEMBL) Alternative ID(s) of Target Chain>


$$$$

  Mrv0541 11241407572D          

 23 24  0  0  0  0            999 V2000
   -3.4264   -6.1791    0.0000 C   0  0  0  0  0  0  0  0  0  0  0  0
   -3.4276   -7.0065    0.0000 C   0  0  0  0  0  0  0  0  0  0  0  0
   -2.7128   -7.4194    0.0000 C   0  0  0  0  0  0  0  0  0  0  0  0
   -1.9963   -7.0060    0.0000 C   0  0  0  0  0  0  0  0  0  0  0  0
   -1.9992   -6.1755    0.0000 C   0  0  0  0  0  0  0  0  0  0  0  0
   -2.7146   -5.7664    0.0000 C   0  0  0  0  0  0  0  0  0  0  0  0
   -2.7170   -4.9414    0.0000 N   0  0  0  0  0  0  0  0  0  0  0  0
   -2.0038   -4.5267    0.0000 C   0  0  0  0  0  0  0  0  0  0  0  0
   -2.0063   -3.7017    0.0000 O   0  0  0  0  0  0  0  0  0  0  0  0
   -1.2881   -4.9371    0.0000 C   0  0  0  0  0  0  0  0  0  0  0  0
   -0.5749   -4.5225    0.0000 C   0  0  0  0  0  0  0  0  0  0  0  0
    0.1408   -4.9328    0.0000 C   0  0  0  0  0  0  0  0  0  0  0  0
    0.8541   -4.5182    0.0000 C   0  0  0  0  0  0  0  0  0  0  0  0
    1.5698   -4.9286    0.0000 C   0  0  0  0  0  0  0  0  0  0  0  0
    2.2830   -4.5139    0.0000 C   0  0  0  0  0  0  0  0  0  0  0  0
    2.9987   -4.9243    0.0000 C   0  0  0  0  0  0  0  0  0  0  0  0
   -4.1389   -5.7670    0.0000 C   0  0  0  0  0  0  0  0  0  0  0  0
   -4.1378   -4.9409    0.0000 C   0  0  0  0  0  0  0  0  0  0  0  0
   -4.8515   -4.5286    0.0000 C   0  0  0  0  0  0  0  0  0  0  0  0
   -5.5668   -4.9413    0.0000 C   0  0  0  0  0  0  0  0  0  0  0  0
   -5.5640   -5.7706    0.0000 C   0  0  0  0  0  0  0  0  0  0  0  0
   -4.8497   -6.1791    0.0000 C   0  0  0  0  0  0  0  0  0  0  0  0
    3.0012   -5.7493    0.0000 C   0  0  0  0  0  0  0  0  0  0  0  0
  5  6  1  0  0  0  0
 11 12  1  0  0  0  0
  6  1  2  0  0  0  0
 12 13  1  0  0  0  0
  1  2  1  0  0  0  0
 13 14  1  0  0  0  0
  6  7  1  0  0  0  0
 14 15  1  0  0  0  0
  3  4  1  0  0  0  0
 15 16  1  0  0  0  0
  7  8  1  0  0  0  0
 17 18  2  0  0  0  0
  8  9  2  0  0  0  0
 18 19  1  0  0  0  0
  4  5  2  0  0  0  0
 19 20  2  0  0  0  0
  8 10  1  0  0  0  0
 20 21  1  0  0  0  0
  2  3  2  0  0  0  0
 21 22  2  0  0  0  0
 22 17  1  0  0  0  0
  1 17  1  0  0  0  0
 10 11  1  0  0  0  0
 16 23  1  0  0  0  0
M  END
> <From>
www.bindingDB.org

> <BindingDB Reactant_set_id>
50855131

> <Ligand InChI>
InChI=1S/C21H27NO/c1-2-3-4-5-6-10-17-21(23)22-20-16-12-11-15-19(20)18-13-8-7-9-14-18/h7-9,11-16H,2-6,10,17H2,1H3,(H,22,23)

> <Ligand InChI Key>
QOVZQINZWUSANF-UHFFFAOYSA-N

> <BindingDB MonomerID>
50371699

> <BindingDB Ligand Name>
CHEMBL270041::US9149492, 2

> <Target Name>
Sterol O-acyltransferase 2

> <Target Source Organism According to Curator or DataSource>


> <Ki (nM)>


> <IC50 (nM)>
 414000

> <Kd (nM)>


> <EC50 (nM)>


> <kon (M-1-s-1)>


> <koff (s-1)>


> <pH>


> <Temp (C)>


> <Curation/DataSource>
ChEMBL

> <Article DOI>
10.1021/jm701474c

> <BindingDB Entry DOI>
10.7270/Q2WQ04N3

> <PMID>
18284184

> <PubChem AID>


> <Patent Number>


> <Authors>
Gelain, A; Barlocco, D; Kwon, BM; Jeong, TS; Im, KR; Legnani, L; Toma, L

> <Institution>
Universita di Milano

> <Link to Ligand in BindingDB>
http://www.bindingdb.org/bind/chemsearch/marvin/MolStructure.jsp?monomerid=50371699

> <Link to Target in BindingDB>
http://www.bindingdb.org/jsp/dbsearch/PrimarySearch_ki.jsp?energyterm=kJ/mole&tag=pol&polymerid=7773&target=Sterol+O-acyltransferase+2&column=ki&startPg=0&Increment=50&submit=Search

> <Link to Ligand-Target Pair in BindingDB>
http://www.bindingdb.org/jsp/dbsearch/PrimarySearch_ki.jsp?energyterm=kJ/mole&tag=r21&monomerid=50371699&enzyme=Sterol+O-acyltransferase+2&column=ki&startPg=0&Increment=50&submit=Search

> <Ligand HET ID in PDB>


> <PDB ID(s) for Ligand-Target Complex>


> <PubChem CID>
24806277

> <PubChem SID>
160850800

> <ChEBI ID of Ligand>


> <ChEMBL ID of Ligand>
CHEMBL270041

> <DrugBank ID of Ligand>


> <IUPHAR_GRAC ID of Ligand>


> <KEGG ID of Ligand>


> <ZINC ID of Ligand>
ZINC43640919

> <Number of Protein Chains in Target (>1 implies a multichain complex)>
1

> <BindingDB Target Chain Sequence>
MEPGGARLRLQRTEGLGGERERQPCGDGNTETHRAPDLVQWTRHMEAVKAQLLEQAQGQLRELLDRAMREAIQSYPSQDKPLPPPPPGSLSRTQEPSLGKQKVFIIRKSLLDELMEVQHFRTIYHMFIAGLCVFIISTLAIDFIDEGRLLLEFDLLIFSFGQLPLALVTWVPMFLSTLLAPYQALRLWARGTWTQATGLGCALLAAHAVVLCALPVHVAVEHQLPPASRCVLVFEQVRFLMKSYSFLREAVPGTLRARRGEGIQAPSFSSYLYFLFCPTLIYRETYPRTPYVRWNYVAKNFAQALGCVLYACFILGRLCVPVFANMSREPFSTRALVLSILHATLPGIFMLLLIFFAFLHCWLNAFAEMLRFGDRMFYRDWWNSTSFSNYYRTWNVVVHDWLYSYVYQDGLRLLGARARGVAMLGVFLVSAVAHEYIFCFVLGFFYPVMLILFLVIGGMLNFMMHDQRTGPAWNVLMWTMLFLGQGIQVSLYCQEWYARRHCPLPQATFWGLVTPRSWSCHT

> <PDB ID(s) of Target Chain>


> <UniProt (SwissProt) Recommended Name of Target Chain>
Sterol O-acyltransferase 2

> <UniProt (SwissProt) Entry Name of Target Chain>
ACAT-2

> <UniProt (SwissProt) Primary ID of Target Chain>
O75908

> <UniProt (SwissProt) Secondary ID(s) of Target Chain>
F5H7W4 I6L9H9 Q4VB99 Q4VBA1 Q96TD4 Q9UNR2

> <UniProt (SwissProt) Alternative ID(s) of Target Chain>


> <UniProt (TrEMBL) Submitted Name of Target Chain>


> <UniProt (TrEMBL) Entry Name of Target Chain>


> <UniProt (TrEMBL) Primary ID of Target Chain>


> <UniProt (TrEMBL) Secondary ID(s) of Target Chain>


> <UniProt (TrEMBL) Alternative ID(s) of Target Chain>


$$$$
